Dataset Filtering Statistics
============================================================

Input file: labeled_openscad_dataset.json
Output file: labeled_openscad_dataset_no_comments.json
Total entries: 7375
Successfully filtered: 5777
Failed: 1598
Success rate: 78.3%

Failed entries:
  [0] Small green coasters with gears
      ✗ Small green coasters with gears: Render failed: ERROR: Parser error: syntax error in file ../../../../../tmp/tmpgsm81q88/test.scad, line 260
Can't parse file '/tmp/tmpgsm81q88/test.scad'!


  [1] Plastic blue folding chair.
      ✗ Plastic blue folding chair.: Render failed: ERROR: Parser error: syntax error in file ../../../../../tmp/tmp20x8c1qm/test.scad, line 75
Can't parse file '/tmp/tmp20x8c1qm/test.scad'!


  [9] Plastic gear made on 3d
      ✗ Plastic gear made on 3d: Render timeout
  [11] Cogwheel with gears in middle
      ✗ Cogwheel with gears in middle: Render failed: WARNING: Can't open library 'parametric_involute_gear_v5.0.scad'.
WARNING: Ignoring unknown module 'gear' in file test.scad, line 19
WARNING: Ignoring unknown module 'gear' in file test.scad, line 27

  [12] Screw attachment for camera lens
      ✗ Screw attachment for camera lens: Render failed: ERROR: Parser error: syntax error in file ../../../../../tmp/tmpbu46raq_/test.scad, line 27
Can't parse file '/tmp/tmpbu46raq_/test.scad'!


  [13] Jigsaw puzzle piece is blue
      ✗ Jigsaw puzzle piece is blue: Render failed: ERROR: Parser error: syntax error in file ../../../../../tmp/tmpena2ujck/test.scad, line 51
Can't parse file '/tmp/tmpena2ujck/test.scad'!


  [15] Lego-like, green, interlocking pieces.
      ✗ Lego-like, green, interlocking pieces.: Render failed: ERROR: Parser error: syntax error in file ../../../../../tmp/tmp2dmiq0ia/test.scad, line 1
Can't parse file '/tmp/tmp2dmiq0ia/test.scad'!


  [19] Camera strap on table.
      ✗ Camera strap on table.: Render failed: ERROR: Parser error: syntax error in file ../../../../../tmp/tmpndnbtknq/test.scad, line 84
Can't parse file '/tmp/tmpndnbtknq/test.scad'!


  [21] Dinosaur on grass.
      ✗ Dinosaur on grass.: Render failed: ERROR: Parser error: syntax error in file ../../../../../tmp/tmpczn289cj/test.scad, line 100
Can't parse file '/tmp/tmpczn289cj/test.scad'!


  [25] Three flying saucers.
      ✗ Three flying saucers.: Render timeout
  [28] Gear.
      ✗ Gear.: Render failed: ERROR: Parser error: syntax error in file ../../../../../tmp/tmph18a1aq_/test.scad, line 9
Can't parse file '/tmp/tmph18a1aq_/test.scad'!


  [35] Tools.
      ✗ Tools.: Render failed: WARNING: Can't open include file 'smallsidefont.scad'.
ERROR: Parser error: syntax error in file ../../../../../tmp/tmpf5nr14l2/test.scad, line 117
Can't parse file '/tmp/tmpf5nr14l2/test.scad'!


  [37] Metal screw on white paper.
      ✗ Metal screw on white paper.: Render failed: ERROR: Parser error: syntax error in file ../../../../../tmp/tmp61v6936l/test.scad, line 7
Can't parse file '/tmp/tmp61v6936l/test.scad'!


  [42] Black cube with green inside.
      ✗ Black cube with green inside.: Render failed: WARNING: Can't open library 'iphone4_model.scad'.
ERROR: Parser error: syntax error in file ../../../../../tmp/tmplqo2q61u/test.scad, line 15
Can't parse file '/tmp/tmplqo2q61u/test.scad'!


  [43] Sphere with concentric circles.
      ✗ Sphere with concentric circles.: Render timeout
  [44] Stacked blue cylinders.
      ✗ Stacked blue cylinders.: Render timeout
  [47] 3d print on spool.
      ✗ 3d print on spool.: Render failed: ERROR: Parser error: syntax error in file ../../../../../tmp/tmpjl569i78/test.scad, line 259
Can't parse file '/tmp/tmpjl569i78/test.scad'!


  [48] Vase on table.
      ✗ Vase on table.: Render timeout
  [49] Gears on a flag.
      ✗ Gears on a flag.: Render timeout
  [53] Pink plastic leg on spool.
      ✗ Pink plastic leg on spool.: Render failed: ERROR: Parser error: syntax error in file ../../../../../tmp/tmp0re6_l7d/test.scad, line 167
Can't parse file '/tmp/tmp0re6_l7d/test.scad'!


  [60] Four colorful objects on table.
      ✗ Four colorful objects on table.: Render timeout
  [68] Robot, parts, table.
      ✗ Robot, parts, table.: Render timeout
  [83] Rubik's cube made of blocks
      ✗ Rubik's cube made of blocks: Render failed: ERROR: Parser error: syntax error in file ../../../../../tmp/tmpz7p7016s/test.scad, line 1
Can't parse file '/tmp/tmpz7p7016s/test.scad'!


  [93] Unusual computer chair.
      ✗ Unusual computer chair.: Render failed: ERROR: Parser error: syntax error in file ../../../../../tmp/tmpcf69jkfe/test.scad, line 37
Can't parse file '/tmp/tmpcf69jkfe/test.scad'!


  [100] Four red stamps with words.
      ✗ Four red stamps with words.: Render failed: ERROR: Parser error: syntax error in file ../../../../../tmp/tmpw66c9xl8/test.scad, line 215
Can't parse file '/tmp/tmpw66c9xl8/test.scad'!


  [105] Small black 3d printed mechanical
      ✗ Small black 3d printed mechanical: Render timeout
  [108] Pencil holder with pencils.
      ✗ Pencil holder with pencils.: Render timeout
  [119] Gear image with overlay text.
      ✗ Gear image with overlay text.: Render timeout
  [126] Red plastic bottle cap.
      ✗ Red plastic bottle cap.: Render failed: ERROR: Parser error: syntax error in file ../../../../../tmp/tmpyitcjvxs/test.scad, line 198
Can't parse file '/tmp/tmpyitcjvxs/test.scad'!


  [127] Toothpick shark.
      ✗ Toothpick shark.: Render failed: WARNING: Can't open DXF file '/tmp/tmpqvpewa55/fish-clamp_export.dxf'.
Geometries in cache: 3
Geometry cache size in bytes: 48
CGAL Polyhedrons in cache: 0
CGAL cache size in bytes: 0
Total rendering 
  [130] White clamp on table.
      ✗ White clamp on table.: Render failed: ERROR: Parser error: syntax error in file ../../../../../tmp/tmpy6m41fn8/test.scad, line 113
Can't parse file '/tmp/tmpy6m41fn8/test.scad'!


  [135] Gears.
      ✗ Gears.: Render timeout
  [141] Gears with sprockets.
      ✗ Gears with sprockets.: Render failed: ERROR: Parser error: syntax error in file ../../../../../tmp/tmpjce_0tnf/test.scad, line 18
Can't parse file '/tmp/tmpjce_0tnf/test.scad'!


  [149] Cartesian grid with cube on
      ✗ Cartesian grid with cube on: Render failed: Geometries in cache: 1
Geometry cache size in bytes: 0
CGAL Polyhedrons in cache: 0
CGAL cache size in bytes: 0
Total rendering time: 0:00:00.000
Current top level object is empty.

  [152] Four green blocks.
      ✗ Four green blocks.: Render timeout
  [157] Folding chair, blue color.
      ✗ Folding chair, blue color.: Render timeout
  [171] Gold and yellow hat and
      ✗ Gold and yellow hat and: Render failed: ERROR: Parser error: syntax error in file ../../../../../tmp/tmpdvibr65u/test.scad, line 87
Can't parse file '/tmp/tmpdvibr65u/test.scad'!


  [185] Lego hand with fingers spread.
      ✗ Lego hand with fingers spread.: Render timeout
  [193] Bracelet made of pipe cleaners.
      ✗ Bracelet made of pipe cleaners.: Render timeout
  [201] Round white eggs on counter.
      ✗ Round white eggs on counter.: Render timeout
  [205] Woven ring made of red
      ✗ Woven ring made of red: Render timeout
  [229] Silver necklace with medallion.
      ✗ Silver necklace with medallion.: Render timeout
  [239] Sprinkler nozzle.
      ✗ Sprinkler nozzle.: Render timeout
  [246] Small part of a plastic
      ✗ Small part of a plastic: Render timeout
  [247] 3d printer, white plastic coil.
      ✗ 3d printer, white plastic coil.: Render timeout
  [260] Computer-generated egg.
      ✗ Computer-generated egg.: Render failed: WARNING: Bad range parameter in for statement: too many elements (10001) in file test.scad, line 7
Geometries in cache: 1
Geometry cache size in bytes: 0
CGAL Polyhedrons in cache: 0
CGAL cache size i
  [266] Blue cube with black lines.
      ✗ Blue cube with black lines.: Render timeout
  [271] Blue plastic crate with holes
      ✗ Blue plastic crate with holes: Render timeout
  [282] Blue model molecule.
      ✗ Blue model molecule.: Render timeout
  [286] A yellow decoration.
      ✗ A yellow decoration.: Render timeout
  [289] Blue vending machine.
      ✗ Blue vending machine.: Render timeout
  [291] A spring on a machine.
      ✗ A spring on a machine.: Render timeout
  [292] Plastic blue cube with holes.
      ✗ Plastic blue cube with holes.: Render timeout
  [302] Rubber rings with metal hub
      ✗ Rubber rings with metal hub: Render timeout
  [311] Gears in a picture
      ✗ Gears in a picture: Render timeout
  [314] Plastic mold, yellow, mechanical parts.
      ✗ Plastic mold, yellow, mechanical parts.: Render timeout
  [316] Gears on screen.
      ✗ Gears on screen.: Render timeout
  [318] Black rectangular box on table.
      ✗ Black rectangular box on table.: Render timeout
  [335] Blue 3d print, bracelet, bracelets.
      ✗ Blue 3d print, bracelet, bracelets.: Render timeout
  [337] Remote control for printer.
      ✗ Remote control for printer.: Render timeout
  [338] Rubber stamp cookie cutter.
      ✗ Rubber stamp cookie cutter.: Render timeout
  [340] Customizable jewelry box.
      ✗ Customizable jewelry box.: Render failed: ERROR: Parser error: syntax error in file ../../../../../tmp/tmp2bvy2nxf/test.scad, line 1
Can't parse file '/tmp/tmp2bvy2nxf/test.scad'!


  [345] Folded paper model of brain.
      ✗ Folded paper model of brain.: Render timeout
  [355] Blue generator on stand.
      ✗ Blue generator on stand.: Render timeout
  [356] Egg-shaped ornaments.
      ✗ Egg-shaped ornaments.: Render timeout
  [368] Circular mechanical part with holes.
      ✗ Circular mechanical part with holes.: Render timeout
  [370] Red 3d printing object.
      ✗ Red 3d printing object.: Render timeout
  [373] Man wearing blue tie.
      ✗ Man wearing blue tie.: Render timeout
  [378] Plastic pieces on table.
      ✗ Plastic pieces on table.: Render timeout
  [390] Two keychains, blue.
      ✗ Two keychains, blue.: Render timeout
  [391] Batteries in case.
      ✗ Batteries in case.: Render timeout
  [396] Tetris blocks on grid.
      ✗ Tetris blocks on grid.: Render failed: WARNING: Can't open library 'Write.scad'.
WARNING: Can't open include file 'write/Write.scad'.
ERROR: Parser error: syntax error in file ../../../../../tmp/tmpu4v460gh/test.scad, line 85
Can't parse f
  [400] Wine bottle collection on table.
      ✗ Wine bottle collection on table.: Render failed: ERROR: Parser error: syntax error in file ../../../../../tmp/tmp7skat4h4/test.scad, line 54
Can't parse file '/tmp/tmp7skat4h4/test.scad'!


  [404] A bunch of red plastic
      ✗ A bunch of red plastic: Render timeout
  [406] The bracelet is purple.
      ✗ The bracelet is purple.: Render timeout
  [407] Gears on poster.
      ✗ Gears on poster.: Render timeout
  [420] 3d printer model.
      ✗ 3d printer model.: Render timeout
  [422] Paper airplane on 3d printer.
      ✗ Paper airplane on 3d printer.: Render timeout
  [425] Wireless router symbol.
      ✗ Wireless router symbol.: Render failed: WARNING: Can't open library 'utils/build_plate.scad'.
WARNING: Can't open library 'Write.scad'.
WARNING: Can't open include file 'write/Write.scad'.
WARNING: Can't open library 'Write.scad'.
ERROR: Pa
  [437] Button with four holes.
      ✗ Button with four holes.: Render timeout
  [440] Four black gears.
      ✗ Four black gears.: Render timeout
  [441] A pair of rings connected
      ✗ A pair of rings connected: Render failed: WARNING: Can't open library 'write/Write.scad'.
ERROR: Parser error: syntax error in file ../../../../../tmp/tmp016s8ql6/test.scad, line 77
Can't parse file '/tmp/tmp016s8ql6/test.scad'!


  [447] Yellow spiral spring toy.
      ✗ Yellow spiral spring toy.: Render timeout
  [448] Object in the photo is
      ✗ Object in the photo is: Render timeout
  [451] Yellow plastic connectors.
      ✗ Yellow plastic connectors.: Render failed: ERROR: Parser error: syntax error in file ../../../../../tmp/tmp8nlwu0y5/test.scad, line 267
Can't parse file '/tmp/tmp8nlwu0y5/test.scad'!


  [467] Gear
      ✗ Gear: Render timeout
  [483] Plastic model of skeleton.
      ✗ Plastic model of skeleton.: Render timeout
  [485] Gears on the image.
      ✗ Gears on the image.: Render failed: ERROR: Parser error: syntax error in file ../../../../../tmp/tmpx1cx_6d4/test.scad, line 1
Can't parse file '/tmp/tmpx1cx_6d4/test.scad'!


  [486] Phone on display.
      ✗ Phone on display.: Render failed: WARNING: Can't open include file '/Users/aaronciuffo/Documents/Hobby/OpenScad/libraries/puzzlecutlib/multicutdemo.scad'.
WARNING: Ignoring unknown module 'yFemaleCut' in file test.scad, line 124
Geome
  [487] Cogs on a phone screen.
      ✗ Cogs on a phone screen.: Render failed: ERROR: Parser error: syntax error in file ../../../../../tmp/tmpemkp3vxr/test.scad, line 1
Can't parse file '/tmp/tmpemkp3vxr/test.scad'!


  [488] Cog in gears.
      ✗ Cog in gears.: Render failed: ERROR: Parser error: syntax error in file ../../../../../tmp/tmpnyujmhzs/test.scad, line 1
Can't parse file '/tmp/tmpnyujmhzs/test.scad'!


  [489] Gears of clock.
      ✗ Gears of clock.: Render failed: ERROR: Parser error: syntax error in file ../../../../../tmp/tmpwk5cs_sn/test.scad, line 1
Can't parse file '/tmp/tmpwk5cs_sn/test.scad'!


  [490] Gears on screen.
      ✗ Gears on screen.: Render failed: ERROR: Parser error: syntax error in file ../../../../../tmp/tmp10yzs7kh/test.scad, line 1
Can't parse file '/tmp/tmp10yzs7kh/test.scad'!


  [492] Blue 3d printed flower.
      ✗ Blue 3d printed flower.: Render timeout
  [518] Cube maze game with sign.
      ✗ Cube maze game with sign.: Render failed: Geometries in cache: 13
Geometry cache size in bytes: 2672
CGAL Polyhedrons in cache: 0
CGAL cache size in bytes: 0
Total rendering time: 0:00:00.000
   Top level object is a 2D object:
   Contours:  
  [526] Plastic model of ramp and
      ✗ Plastic model of ramp and: Render failed: ERROR: Parser error: syntax error in file ../../../../../tmp/tmphenr3z1a/test.scad, line 18
Can't parse file '/tmp/tmphenr3z1a/test.scad'!


  [530] Blue vase.
      ✗ Blue vase.: Render failed: ERROR: Parser error: syntax error in file ../../../../../tmp/tmpci0czgpf/test.scad, line 45
Can't parse file '/tmp/tmpci0czgpf/test.scad'!


  [532] Blue plastic discs with holes.
      ✗ Blue plastic discs with holes.: Render timeout
  [538] White plastic storage box.
      ✗ White plastic storage box.: Render failed: ERROR: Parser error: syntax error in file ../../../../../tmp/tmpuhv59c81/test.scad, line 129
Can't parse file '/tmp/tmpuhv59c81/test.scad'!


  [547] Gears
      ✗ Gears: Render failed: WARNING: The file '/tmp/tmpnrvoqh1v/image-surface.dat' couldn't be opened.
Geometries in cache: 1
Geometry cache size in bytes: 152
CGAL Polyhedrons in cache: 0
CGAL cache size in bytes: 0
Total rende
  [548] Plastic knife holder.
      ✗ Plastic knife holder.: Render failed: ERROR: Parser error: syntax error in file ../../../../../tmp/tmpfytc40gn/test.scad, line 26
Can't parse file '/tmp/tmpfytc40gn/test.scad'!


  [550] Spool of filament.
      ✗ Spool of filament.: Render timeout
  [564] Coin machine with instructions.
      ✗ Coin machine with instructions.: Render timeout
  [565] Rubik's cube with stickers.
      ✗ Rubik's cube with stickers.: Render failed: ERROR: Parser error: syntax error in file ../../../../../tmp/tmpoh84l6as/test.scad, line 1
Can't parse file '/tmp/tmpoh84l6as/test.scad'!


  [572] Suitcase, plastic, open.
      ✗ Suitcase, plastic, open.: Render failed: ERROR: Parser error: syntax error in file ../../../../../tmp/tmp1q1bzqvx/test.scad, line 217
Can't parse file '/tmp/tmp1q1bzqvx/test.scad'!


  [580] Three-dimensional blue figurine.
      ✗ Three-dimensional blue figurine.: Render failed: WARNING: Can't open include file 'Write.scad'.
ERROR: Parser error: syntax error in file ../../../../../tmp/tmpbiu4xfa1/test.scad, line 30
Can't parse file '/tmp/tmpbiu4xfa1/test.scad'!


  [588] Blue box on white table.
      ✗ Blue box on white table.: Render failed: Geometries in cache: 1
Geometry cache size in bytes: 0
CGAL Polyhedrons in cache: 0
CGAL cache size in bytes: 0
Total rendering time: 0:00:00.000
Current top level object is empty.

  [590] Lit up box.
      ✗ Lit up box.: Render failed: Geometries in cache: 1
Geometry cache size in bytes: 0
CGAL Polyhedrons in cache: 0
CGAL cache size in bytes: 0
Total rendering time: 0:00:00.000
Current top level object is empty.

  [593] Red and black plastic items.
      ✗ Red and black plastic items.: Render timeout
  [594] Mold plastic red blue.
      ✗ Mold plastic red blue.: Render timeout
  [602] Ornament, made of plastic, has
      ✗ Ornament, made of plastic, has: Render failed: WARNING: Can't open include file 'spiffsans.scad'.
ERROR: Parser error: syntax error in file ../../../../../tmp/tmphbzdul3w/test.scad, line 82
Can't parse file '/tmp/tmphbzdul3w/test.scad'!


  [619] Emblem on pole.
      ✗ Emblem on pole.: Render failed: ECHO: "INSTRUCTIONS: Magnet-insertion and color change requires a pause at", 5.6, "mm."
WARNING: Can't open import file '/tmp/tmp0a0hnn1q/spacechem_original.stl', import() at line 49
Geometries in cac
  [636] Circular logo design
      ✗ Circular logo design: Render failed: WARNING: Can't open library 'Libs.scad'.
ERROR: Parser error: syntax error in file ../../../../../tmp/tmplyzt3j2y/test.scad, line 139
Can't parse file '/tmp/tmplyzt3j2y/test.scad'!


  [637] Crochet yarn balls.
      ✗ Crochet yarn balls.: Render timeout
  [644] Chess piece on penny.
      ✗ Chess piece on penny.: Render failed: ERROR: Parser error: syntax error in file ../../../../../tmp/tmpfvxfs2zp/test.scad, line 134
Can't parse file '/tmp/tmpfvxfs2zp/test.scad'!


  [649] Metal part
      ✗ Metal part: Render timeout
  [651] Marble box with computer plugged
      ✗ Marble box with computer plugged: Render failed: ERROR: Parser error: syntax error in file ../../../../../tmp/tmpowv8z4rj/test.scad, line 1
Can't parse file '/tmp/tmpowv8z4rj/test.scad'!


  [655] Coffee cups with lids.
      ✗ Coffee cups with lids.: Render timeout
  [666] Gears are interlocking.
      ✗ Gears are interlocking.: Render failed: ERROR: Parser error: syntax error in file ../../../../../tmp/tmp4tlsk8k3/test.scad, line 46
Can't parse file '/tmp/tmp4tlsk8k3/test.scad'!


  [671] 3d printer with model on
      ✗ 3d printer with model on: Render timeout
  [672] 3d printer on left, red
      ✗ 3d printer on left, red: Render timeout
  [680] Blue, paper spiral.
      ✗ Blue, paper spiral.: Render failed: ECHO: "random_vect ", [16.1152, 70.1295, 53.3162, 1.53489, 83.592, 60.5431, 57.8568, 97.7037, 15.8442, 89.2874, 15.6532, 62.0337, 5.18945, 56.1385, 62.0904, 46.2498, 80.0651, 4.0191, 71.9329, 91.4155,
  [711] Circular yellow device with holes.
      ✗ Circular yellow device with holes.: Render timeout
  [713] Yellow object with holes.
      ✗ Yellow object with holes.: Render timeout
  [717] Fidget spinner sculpture.
      ✗ Fidget spinner sculpture.: Render timeout
  [721] Gears in motion.
      ✗ Gears in motion.: Render timeout
  [726] A set of plastic rings.
      ✗ A set of plastic rings.: Render timeout
  [730] The design is blue.
      ✗ The design is blue.: Render failed: WARNING: Can't open library 'utils/build_plate.scad'.
WARNING: Ignoring unknown module 'build_plate' in file test.scad, line 23
WARNING: The file '' couldn't be opened.
Geometries in cache: 11
Geometr
  [731] Propellor on blue screen.
      ✗ Propellor on blue screen.: Render failed: WARNING: Can't open include file 'write/write.scad'.
WARNING: Can't open library 'utils/build_plate.scad'.
ERROR: Parser error: syntax error in file ../../../../../tmp/tmpp3q71g58/test.scad, line 135

  [740] Blue plastic toy with holes.
      ✗ Blue plastic toy with holes.: Render timeout
  [744] Blue robot figurine.
      ✗ Blue robot figurine.: Render timeout
  [745] Cube shaped chair.
      ✗ Cube shaped chair.: Render failed: ERROR: Parser error: syntax error in file ../../../../../tmp/tmpfxeujfat/test.scad, line 88
Can't parse file '/tmp/tmpfxeujfat/test.scad'!


  [746] Gears in a picture.
      ✗ Gears in a picture.: Render failed: WARNING: Can't open library 'write.scad'.
ERROR: Parser error: syntax error in file ../../../../../tmp/tmpxom3srju/test.scad, line 136
Can't parse file '/tmp/tmpxom3srju/test.scad'!


  [754] Wooden horn on table.
      ✗ Wooden horn on table.: Render failed: ERROR: Parser error: syntax error in file ../../../../../tmp/tmp0xtn3mfw/test.scad, line 60
Can't parse file '/tmp/tmp0xtn3mfw/test.scad'!


  [765] Ice tea on wooden railing.
      ✗ Ice tea on wooden railing.: Render failed: ERROR: Parser error: syntax error in file ../../../../../tmp/tmp5ksgnv54/test.scad, line 35
Can't parse file '/tmp/tmp5ksgnv54/test.scad'!


  [769] Gears inside gears.
      ✗ Gears inside gears.: Render failed: ERROR: Parser error: syntax error in file ../../../../../tmp/tmpiz150eih/test.scad, line 51
Can't parse file '/tmp/tmpiz150eih/test.scad'!


  [770] Gears, cogwheels, machine parts
      ✗ Gears, cogwheels, machine parts: Render failed: ERROR: Parser error: syntax error in file ../../../../../tmp/tmp1y1sxgbn/test.scad, line 51
Can't parse file '/tmp/tmp1y1sxgbn/test.scad'!


  [778] Gears on poster
      ✗ Gears on poster: Render failed: ERROR: Parser error: syntax error in file ../../../../../tmp/tmpc2swuhwc/test.scad, line 33
Can't parse file '/tmp/tmpc2swuhwc/test.scad'!


  [782] Jewelry earrings.
      ✗ Jewelry earrings.: Render timeout
  [785] Pencil holder with items.
      ✗ Pencil holder with items.: Render timeout
  [787] Plastic claw, enjoy scratching.
      ✗ Plastic claw, enjoy scratching.: Render timeout
  [788] Single, tall plant tree.
      ✗ Single, tall plant tree.: Render timeout
  [789] Glass bottle, maker bot quote.
      ✗ Glass bottle, maker bot quote.: Render failed: ERROR: Parser error: syntax error in file ../../../../../tmp/tmp3d6ca3_p/test.scad, line 287
Can't parse file '/tmp/tmp3d6ca3_p/test.scad'!


  [791] Green tree top on white
      ✗ Green tree top on white: Render timeout
  [792] Tall tree with skinny branches
      ✗ Tall tree with skinny branches: Render timeout
  [794] Text on image.
      ✗ Text on image.: Render failed: WARNING: Can't open include file 'write.scad'.
ERROR: Parser error: syntax error in file ../../../../../tmp/tmpky82w5u5/test.scad, line 163
Can't parse file '/tmp/tmpky82w5u5/test.scad'!


  [795] Glass martini glasses.
      ✗ Glass martini glasses.: Render timeout
  [799] White plastic tree.
      ✗ White plastic tree.: Render timeout
  [813] Small wooden table.
      ✗ Small wooden table.: Render timeout
  [822] Advertisement for fake lottery scam
      ✗ Advertisement for fake lottery scam: Render failed: WARNING: Can't open include file 'write.scad'.
ERROR: Parser error: syntax error in file ../../../../../tmp/tmp8aqvs1g0/test.scad, line 99
Can't parse file '/tmp/tmp8aqvs1g0/test.scad'!


  [831] Round yellow daisy.
      ✗ Round yellow daisy.: Render timeout
  [839] Black 3d printed chess piece.
      ✗ Black 3d printed chess piece.: Render timeout
  [841] Rubber blocks on table.
      ✗ Rubber blocks on table.: Render failed: Geometries in cache: 1
Geometry cache size in bytes: 0
CGAL Polyhedrons in cache: 0
CGAL cache size in bytes: 0
Total rendering time: 0:00:00.000
Current top level object is empty.

  [843] Rubik's cube in four stages
      ✗ Rubik's cube in four stages: Render timeout
  [844] Rubik's cube made from Lego
      ✗ Rubik's cube made from Lego: Render timeout
  [857] Blue link chain.
      ✗ Blue link chain.: Render timeout
  [861] Toothbrush holder with tools inside.
      ✗ Toothbrush holder with tools inside.: Render timeout
  [872] Lego box of mercedes pencil
      ✗ Lego box of mercedes pencil: Render timeout
  [874] White tube wrapped rope.
      ✗ White tube wrapped rope.: Render timeout
  [881] Plastic ring with holes.
      ✗ Plastic ring with holes.: Render timeout
  [892] Blue pencils in plastic containers.
      ✗ Blue pencils in plastic containers.: Render failed: ERROR: Parser error: syntax error in file ../../../../../tmp/tmp5t5_6swa/test.scad, line 2
Can't parse file '/tmp/tmp5t5_6swa/test.scad'!


  [900] Hand with fingers pointing up.
      ✗ Hand with fingers pointing up.: Render failed: Geometries in cache: 1
Geometry cache size in bytes: 0
CGAL Polyhedrons in cache: 0
CGAL cache size in bytes: 0
Total rendering time: 0:00:00.000
Current top level object is empty.

  [903] Gears
      ✗ Gears: Render timeout
  [913] Gearbox with gears.
      ✗ Gearbox with gears.: Render timeout
  [918] Plastic part with holes.
      ✗ Plastic part with holes.: Render failed: ERROR: Parser error: syntax error in file ../../../../../tmp/tmpws4rcgxn/test.scad, line 148
Can't parse file '/tmp/tmpws4rcgxn/test.scad'!


  [929] Two lights on stand.
      ✗ Two lights on stand.: Render timeout
  [937] Two blue rulers on a
      ✗ Two blue rulers on a: Render failed: ERROR: Parser error: syntax error in file ../../../../../tmp/tmphuqx0j6t/test.scad, line 31
Can't parse file '/tmp/tmphuqx0j6t/test.scad'!


  [946] The image is a photo
      ✗ The image is a photo: Render failed: WARNING: Can't open library 'write/Write.scad'.
WARNING: Ignoring unknown module 'write' in file test.scad, line 6
Geometries in cache: 1
Geometry cache size in bytes: 0
CGAL Polyhedrons in cache: 0
C
  [947] Yellow pillars
      ✗ Yellow pillars: Render timeout
  [960] Blue paper boat.
      ✗ Blue paper boat.: Render timeout
  [961] Gears with the word peace.
      ✗ Gears with the word peace.: Render timeout
  [966] Colorful twisted rope.
      ✗ Colorful twisted rope.: Render timeout
  [981] Lego brick display.
      ✗ Lego brick display.: Render failed: WARNING: Can't open library 'write/Write.scad'.
ERROR: Parser error: syntax error in file ../../../../../tmp/tmp2bijr5fp/test.scad, line 42
Can't parse file '/tmp/tmp2bijr5fp/test.scad'!


  [985] Signed boycott makerbot ad.
      ✗ Signed boycott makerbot ad.: Render failed: WARNING: Can't open include file 'write.scad'.
WARNING: x was assigned on line 42 but was overwritten in file test.scad, line 46
WARNING: x was assigned on line 46 but was overwritten in file test.sca
  [988] Mug, spoon, bowl.
      ✗ Mug, spoon, bowl.: Render timeout
  [990] 3d printed ufo model.
      ✗ 3d printed ufo model.: Render timeout
  [997] Gears on poster.
      ✗ Gears on poster.: Render failed: Geometries in cache: 11
Geometry cache size in bytes: 2784
CGAL Polyhedrons in cache: 0
CGAL cache size in bytes: 0
Total rendering time: 0:00:00.000
   Top level object is a 2D object:
   Contours:  
  [998] Sun model in 3d
      ✗ Sun model in 3d: Render timeout
  [1002] Candle holder made of cut-outs.
      ✗ Candle holder made of cut-outs.: Render timeout
  [1007] Laptop mouse
      ✗ Laptop mouse: Render failed: WARNING: Can't open library 'write/Write.scad'.
ERROR: Parser error: syntax error in file ../../../../../tmp/tmphftv3e3q/test.scad, line 127
Can't parse file '/tmp/tmphftv3e3q/test.scad'!


  [1012] Christmas ornaments.
      ✗ Christmas ornaments.: Render timeout
  [1018] A wall outlet with yellow
      ✗ A wall outlet with yellow: Render failed: ERROR: Parser error: syntax error in file ../../../../../tmp/tmpfcl1x7at/test.scad, line 106
Can't parse file '/tmp/tmpfcl1x7at/test.scad'!


  [1021] Screws on table.
      ✗ Screws on table.: Render timeout
  [1022] Ornament on stand.
      ✗ Ornament on stand.: Render timeout
  [1025] Coin cubes, colorful.
      ✗ Coin cubes, colorful.: Render failed: Geometries in cache: 25
Geometry cache size in bytes: 42360
CGAL Polyhedrons in cache: 0
CGAL cache size in bytes: 0
Total rendering time: 0:00:00.063
Current top level object is empty.

  [1026] Toolbox with screws.
      ✗ Toolbox with screws.: Render failed: ERROR: Parser error: syntax error in file ../../../../../tmp/tmpr2t3s7ed/test.scad, line 106
Can't parse file '/tmp/tmpr2t3s7ed/test.scad'!


  [1031] Lego blocks
      ✗ Lego blocks: Render failed: ERROR: Parser error: syntax error in file ../../../../../tmp/tmpy9qp3h38/test.scad, line 100
Can't parse file '/tmp/tmpy9qp3h38/test.scad'!


  [1041] Christmas tree ornament.
      ✗ Christmas tree ornament.: Render failed: ERROR: Parser error: syntax error in file ../../../../../tmp/tmp23hqm3s2/test.scad, line 40
Can't parse file '/tmp/tmp23hqm3s2/test.scad'!


  [1046] Blue plastic key.
      ✗ Blue plastic key.: Render failed: ERROR: Parser error: syntax error in file ../../../../../tmp/tmp_970usef/test.scad, line 28
Can't parse file '/tmp/tmp_970usef/test.scad'!


  [1047] Two blue Legos on table.
      ✗ Two blue Legos on table.: Render timeout
  [1051] Plane with minion character in
      ✗ Plane with minion character in: Render timeout
  [1053] Gear gears image.
      ✗ Gear gears image.: Render failed: WARNING: Can't open import file '/tmp/tmp9j_zdesh/shape.stl', import() at line 1
Geometries in cache: 1
Geometry cache size in bytes: 152
CGAL Polyhedrons in cache: 0
CGAL cache size in bytes: 0
Total
  [1056] Bottle opener
      ✗ Bottle opener: Render failed: WARNING: Can't open library 'write/Write.scad'.
ERROR: Parser error: syntax error in file ../../../../../tmp/tmpqzzbuf3_/test.scad, line 69
Can't parse file '/tmp/tmpqzzbuf3_/test.scad'!


  [1074] Yellow dice with holes.
      ✗ Yellow dice with holes.: Render failed: ERROR: Parser error: syntax error in file ../../../../../tmp/tmpeuehgmfo/test.scad, line 39
Can't parse file '/tmp/tmpeuehgmfo/test.scad'!


  [1076] Green box with multiple gauges.
      ✗ Green box with multiple gauges.: Render failed: ERROR: Parser error: syntax error in file ../../../../../tmp/tmp7cdhrnwf/test.scad, line 1
Can't parse file '/tmp/tmp7cdhrnwf/test.scad'!


  [1079] Red, green, and white plastic
      ✗ Red, green, and white plastic: Render timeout
  [1086] Blue tree with many bubbles.
      ✗ Blue tree with many bubbles.: Render timeout
  [1091] Pitcher, blue, 3d model.
      ✗ Pitcher, blue, 3d model.: Render timeout
  [1093] Minion toy with controller.
      ✗ Minion toy with controller.: Render timeout
  [1103] Sea star on rock.
      ✗ Sea star on rock.: Render timeout
  [1105] Plastic rings in jar.
      ✗ Plastic rings in jar.: Render timeout
  [1106] Rubber mold for gears.
      ✗ Rubber mold for gears.: Render timeout
  [1110] Wheel of fortune.
      ✗ Wheel of fortune.: Render timeout
  [1118] Cnc jigsaw puzzle pieces.
      ✗ Cnc jigsaw puzzle pieces.: Render failed: WARNING: Can't open import file '/tmp/tmpr_i6q7nc/openSCAD1.stl', import() at line 13
WARNING: Can't open import file '/tmp/tmpr_i6q7nc/openSCAD2.stl', import() at line 19
WARNING: Can't open import f
  [1122] Stack of plastic rings.
      ✗ Stack of plastic rings.: Render timeout
  [1126] Gear on left and right.
      ✗ Gear on left and right.: Render failed: ERROR: Parser error: syntax error in file ../../../../../tmp/tmpxs1hllrg/test.scad, line 120
Can't parse file '/tmp/tmpxs1hllrg/test.scad'!


  [1130] Glasses with blue frame.
      ✗ Glasses with blue frame.: Render failed: ERROR: Parser error: syntax error in file ../../../../../tmp/tmp836egu92/test.scad, line 147
Can't parse file '/tmp/tmp836egu92/test.scad'!


  [1135] Blue vase with ridges.
      ✗ Blue vase with ridges.: Render failed: WARNING: variable complexity not specified as parameter in file test.scad, line 34
WARNING: Can't open DXF file '/tmp/tmp_fa_m8i0/savoy.dxf'.
Geometries in cache: 6
Geometry cache size in bytes: 336
C
  [1136] Blue bowl on table.
      ✗ Blue bowl on table.: Render failed: ERROR: Parser error: syntax error in file ../../../../../tmp/tmp25kfz13p/test.scad, line 37
Can't parse file '/tmp/tmp25kfz13p/test.scad'!


  [1143] Blue coiled rope.
      ✗ Blue coiled rope.: Render timeout
  [1146] Game controller with two buttons.
      ✗ Game controller with two buttons.: Render failed: WARNING: Can't open library 'Write.scad'.
ERROR: Parser error: syntax error in file ../../../../../tmp/tmpuze3a8zr/test.scad, line 89
Can't parse file '/tmp/tmpuze3a8zr/test.scad'!


  [1154] Hinge and screw.
      ✗ Hinge and screw.: Render failed: ERROR: Parser error: syntax error in file ../../../../../tmp/tmp3e2l9yef/test.scad, line 50
Can't parse file '/tmp/tmp3e2l9yef/test.scad'!


  [1156] Pink bracelet with save the
      ✗ Pink bracelet with save the: Render failed: WARNING: Can't open library 'write/Write.scad'.
ERROR: Parser error: syntax error in file ../../../../../tmp/tmpdtkfavg7/test.scad, line 44
Can't parse file '/tmp/tmpdtkfavg7/test.scad'!


  [1158] 3d printer.
      ✗ 3d printer.: Render timeout
  [1174] Camera with lens cap on.
      ✗ Camera with lens cap on.: Render failed: ERROR: Parser error: syntax error in file ../../../../../tmp/tmpe16jor13/test.scad, line 66
Can't parse file '/tmp/tmpe16jor13/test.scad'!


  [1175] Rubber cube with holes.
      ✗ Rubber cube with holes.: Render timeout
  [1176] Broken blue heart shaped coaster.
      ✗ Broken blue heart shaped coaster.: Render failed: ERROR: Parser error: syntax error in file ../../../../../tmp/tmp8_0bqfdx/test.scad, line 69
Can't parse file '/tmp/tmp8_0bqfdx/test.scad'!


  [1181] Rectangular yellow piece of plastic.
      ✗ Rectangular yellow piece of plastic.: Render failed: ERROR: Parser error: syntax error in file ../../../../../tmp/tmpn0zn59id/test.scad, line 121
Can't parse file '/tmp/tmpn0zn59id/test.scad'!


  [1189] Tobacco box.
      ✗ Tobacco box.: Render failed: Geometries in cache: 34
Geometry cache size in bytes: 31528
CGAL Polyhedrons in cache: 50
CGAL cache size in bytes: 6388208
Total rendering time: 0:00:03.665
   Top level object is a 2D object:
   Con
  [1190] A pair of fake bushes.
      ✗ A pair of fake bushes.: Render timeout
  [1198] Blue dice with circles.
      ✗ Blue dice with circles.: Render timeout
  [1200] Can opener with wrench.
      ✗ Can opener with wrench.: Render timeout
  [1202] Small plastic toy car.
      ✗ Small plastic toy car.: Render failed: ERROR: Parser error: syntax error in file ../../../../../tmp/tmphy9kvdvt/test.scad, line 32
Can't parse file '/tmp/tmphy9kvdvt/test.scad'!


  [1222] Wooden shelf
      ✗ Wooden shelf: Render failed: DEPRECATED: The assign() module will be removed in future releases. Use a regular assignment instead. in file test.scad, line 45
Geometries in cache: 102
Geometry cache size in bytes: 39456
CGAL Polyh
  [1223] Toy wheel with holes.
      ✗ Toy wheel with holes.: Render timeout
  [1226] Computer screen with image of
      ✗ Computer screen with image of: Render failed: ERROR: Parser error: syntax error in file ../../../../../tmp/tmp3p1m5ayt/test.scad, line 77
Can't parse file '/tmp/tmp3p1m5ayt/test.scad'!


  [1235] Gears of clockwork robot
      ✗ Gears of clockwork robot: Render failed: WARNING: Can't open include file 'bitmap.scad'.
ERROR: Parser error: syntax error in file ../../../../../tmp/tmpmuok5hul/test.scad, line 41
Can't parse file '/tmp/tmpmuok5hul/test.scad'!


  [1247] Handle of a mailbox
      ✗ Handle of a mailbox: Render timeout
  [1248] Colorful wristband coils.
      ✗ Colorful wristband coils.: Render failed: ERROR: Parser error: syntax error in file ../../../../../tmp/tmpklamk9yh/test.scad, line 61
Can't parse file '/tmp/tmpklamk9yh/test.scad'!


  [1262] Bamboo in vase.
      ✗ Bamboo in vase.: Render timeout
  [1267] Dice with carved symbols.
      ✗ Dice with carved symbols.: Render timeout
  [1270] 3d printer
      ✗ 3d printer: Render failed: ERROR: Parser error: syntax error in file ../../../../../tmp/tmpf_2vy_69/test.scad, line 15
Can't parse file '/tmp/tmpf_2vy_69/test.scad'!


  [1282] Blue 3d print on table.
      ✗ Blue 3d print on table.: Render failed: ERROR: Parser error: syntax error in file ../../../../../tmp/tmpncrvo17g/test.scad, line 64
Can't parse file '/tmp/tmpncrvo17g/test.scad'!


  [1292] Gears.
      ✗ Gears.: Render timeout
  [1297] Plastic footprint on blue tablecloth.
      ✗ Plastic footprint on blue tablecloth.: Render timeout
  [1298] A pyramid with a yellow
      ✗ A pyramid with a yellow: Render failed: ERROR: Parser error: syntax error in file ../../../../../tmp/tmpv8d541ph/test.scad, line 8
Can't parse file '/tmp/tmpv8d541ph/test.scad'!


  [1311] Picture of book in case.
      ✗ Picture of book in case.: Render timeout
  [1312] Pencil holder with pens inside.
      ✗ Pencil holder with pens inside.: Render timeout
  [1321] Plastic bones on cutting board
      ✗ Plastic bones on cutting board: Render timeout
  [1329] Tiny black tree.
      ✗ Tiny black tree.: Render timeout
  [1343] Map of state in blue.
      ✗ Map of state in blue.: Render timeout
  [1344] Lego bar chart.
      ✗ Lego bar chart.: Render failed: WARNING: Can't open library 'write/Write.scad'.
ERROR: Parser error: syntax error in file ../../../../../tmp/tmpa_n4y_i1/test.scad, line 65
Can't parse file '/tmp/tmpa_n4y_i1/test.scad'!


  [1346] Yellow bell-shaped thing with light
      ✗ Yellow bell-shaped thing with light: Render failed: ERROR: Parser error: syntax error in file ../../../../../tmp/tmpnyrsg637/test.scad, line 37
Can't parse file '/tmp/tmpnyrsg637/test.scad'!


  [1351] Shadow art on a piece
      ✗ Shadow art on a piece: Render timeout
  [1354] Plastic spoons on table.
      ✗ Plastic spoons on table.: Render timeout
  [1359] Wine glass on coaster
      ✗ Wine glass on coaster: Render timeout
  [1360] Small yellow box.
      ✗ Small yellow box.: Render failed: ERROR: Parser error: syntax error in file ../../../../../tmp/tmp3u_r9fxd/test.scad, line 43
Can't parse file '/tmp/tmp3u_r9fxd/test.scad'!


  [1365] Blue toy on white grid.
      ✗ Blue toy on white grid.: Render timeout
  [1369] Rustic wooden coaster ring.
      ✗ Rustic wooden coaster ring.: Render timeout
  [1377] Blue tower on floor.
      ✗ Blue tower on floor.: Render failed: ERROR: Parser error: syntax error in file ../../../../../tmp/tmptwqlg036/test.scad, line 51
Can't parse file '/tmp/tmptwqlg036/test.scad'!


  [1378] Black and white maze.
      ✗ Black and white maze.: Render failed: DEPRECATED: polyhedron(triangles=[]) will be removed in future releases. Use polyhedron(faces=[]) instead.
ERROR: The given mesh is not closed! Unable to convert to CGAL_Nef_Polyhedron.
ERROR: The giv
  [1379] Red plastic toy tower.
      ✗ Red plastic toy tower.: Render timeout
  [1380] Maze on muffin tin lid.
      ✗ Maze on muffin tin lid.: Render failed: DEPRECATED: polyhedron(triangles=[]) will be removed in future releases. Use polyhedron(faces=[]) instead.
ERROR: The given mesh is not closed! Unable to convert to CGAL_Nef_Polyhedron.
ERROR: The giv
  [1381] Yellow plastic chair.
      ✗ Yellow plastic chair.: Render timeout
  [1384] Ceramic cup on table.
      ✗ Ceramic cup on table.: Render timeout
  [1385] Plastic spindle tower.
      ✗ Plastic spindle tower.: Render timeout
  [1386] Maze puzzle on a table.
      ✗ Maze puzzle on a table.: Render failed: DEPRECATED: polyhedron(triangles=[]) will be removed in future releases. Use polyhedron(faces=[]) instead.
ERROR: The given mesh is not closed! Unable to convert to CGAL_Nef_Polyhedron.
ERROR: The giv
  [1394] Toy golf set with balls
      ✗ Toy golf set with balls: Render timeout
  [1397] The object is blue.
      ✗ The object is blue.: Render timeout
  [1400] Cell phone holder on belt
      ✗ Cell phone holder on belt: Render failed: ERROR: Parser error: syntax error in file ../../../../../tmp/tmp95815ju5/test.scad, line 28
Can't parse file '/tmp/tmp95815ju5/test.scad'!


  [1402] Sculpted plastic art pieces.
      ✗ Sculpted plastic art pieces.: Render failed: ERROR: Parser error: syntax error in file ../../../../../tmp/tmpb3rdniiv/test.scad, line 34
Can't parse file '/tmp/tmpb3rdniiv/test.scad'!


  [1409] Razor blade with holes.
      ✗ Razor blade with holes.: Render failed: DEPRECATED: The assign() module will be removed in future releases. Use a regular assignment instead. in file test.scad, line 82
WARNING: variable center not specified as parameter in file test.scad, 
  [1420] Pencil box on desk.
      ✗ Pencil box on desk.: Render failed: ERROR: Parser error: syntax error in file ../../../../../tmp/tmps5c0uumc/test.scad, line 55
Can't parse file '/tmp/tmps5c0uumc/test.scad'!


  [1424] Red lego dog house.
      ✗ Red lego dog house.: Render failed: ERROR: Parser error: syntax error in file ../../../../../tmp/tmpg7vk5hny/test.scad, line 52
Can't parse file '/tmp/tmpg7vk5hny/test.scad'!


  [1425] Laptop on table.
      ✗ Laptop on table.: Render failed: WARNING: $fn was assigned on line 43 but was overwritten in file test.scad, line 52
WARNING: $fn was assigned on line 52 but was overwritten in file test.scad, line 61
WARNING: $fn was assigned on lin
  [1429] Lego-like construction set.
      ✗ Lego-like construction set.: Render timeout
  [1432] Gif of golden robot holding
      ✗ Gif of golden robot holding: Render failed: ERROR: Parser error: syntax error in file ../../../../../tmp/tmpwsniyy4d/test.scad, line 87
Can't parse file '/tmp/tmpwsniyy4d/test.scad'!


  [1435] Lego machine.
      ✗ Lego machine.: Render timeout
  [1443] Yellow circle with swirling designs.
      ✗ Yellow circle with swirling designs.: Render timeout
  [1448] Wifi signal strength
      ✗ Wifi signal strength: Render timeout
  [1459] A yellow logo.
      ✗ A yellow logo.: Render failed: ERROR: Parser error: syntax error in file ../../../../../tmp/tmpj8sx_pkb/test.scad, line 46
Can't parse file '/tmp/tmpj8sx_pkb/test.scad'!


  [1477] Cog wheels, gears.
      ✗ Cog wheels, gears.: Render failed: ERROR: Parser error: syntax error in file ../../../../../tmp/tmpek410h1i/test.scad, line 1
Can't parse file '/tmp/tmpek410h1i/test.scad'!


  [1486] Solar panel.
      ✗ Solar panel.: Render failed: ERROR: Parser error: syntax error in file ../../../../../tmp/tmptsnn3ie7/test.scad, line 75
Can't parse file '/tmp/tmptsnn3ie7/test.scad'!


  [1499] Flash light with camera.
      ✗ Flash light with camera.: Render failed: ERROR: Parser error: syntax error in file ../../../../../tmp/tmpj2yqmaz1/test.scad, line 182
Can't parse file '/tmp/tmpj2yqmaz1/test.scad'!


  [1502] Cube made of red, yellow,
      ✗ Cube made of red, yellow,: Render failed: ERROR: Parser error: syntax error in file ../../../../../tmp/tmpir0nxgbj/test.scad, line 267
Can't parse file '/tmp/tmpir0nxgbj/test.scad'!


  [1507] Glass pipe in a plant.
      ✗ Glass pipe in a plant.: Render timeout
  [1516] Espresso machine.
      ✗ Espresso machine.: Render timeout
  [1526] White plastic 3d models.
      ✗ White plastic 3d models.: Render timeout
  [1535] Pitcher shaped 3d print.
      ✗ Pitcher shaped 3d print.: Render failed: ERROR: Parser error: syntax error in file ../../../../../tmp/tmppx76a77u/test.scad, line 115
Can't parse file '/tmp/tmppx76a77u/test.scad'!


  [1545] Plastic lego piece.
      ✗ Plastic lego piece.: Render timeout
  [1552] Lego model of rainbow.
      ✗ Lego model of rainbow.: Render timeout
  [1558] A yellow tile with dots.
      ✗ A yellow tile with dots.: Render timeout
  [1563] Plastic model of mechanical parts.
      ✗ Plastic model of mechanical parts.: Render timeout
  [1571] Gears on gear.
      ✗ Gears on gear.: Render timeout
  [1577] Gears are turning.
      ✗ Gears are turning.: Render timeout
  [1578] Red plastic ring.
      ✗ Red plastic ring.: Render failed: ERROR: Parser error: syntax error in file ../../../../../tmp/tmpste44sv0/test.scad, line 29
Can't parse file '/tmp/tmpste44sv0/test.scad'!


  [1584] Bowl on ground.
      ✗ Bowl on ground.: Render failed: ERROR: Parser error: syntax error in file ../../../../../tmp/tmpcesklscv/test.scad, line 99
Can't parse file '/tmp/tmpcesklscv/test.scad'!


  [1616] Candy land castle.
      ✗ Candy land castle.: Render failed: WARNING: Can't open library '../tracklib.scad'.
WARNING: Can't open library 'tracklib.scad'.
WARNING: Ignoring unknown function 'wood_width' in file test.scad, line 41
WARNING: undefined operation (nu
  [1622] Plastic insect replicas.
      ✗ Plastic insect replicas.: Render timeout
  [1629] Cogwheels
      ✗ Cogwheels: Render failed: Geometries in cache: 1
Geometry cache size in bytes: 144
CGAL Polyhedrons in cache: 0
CGAL cache size in bytes: 0
Total rendering time: 0:00:00.000
   Top level object is a 2D object:
   Contours:    
  [1632] Lego structure on display
      ✗ Lego structure on display: Render timeout
  [1635] Lens cap for camera lens
      ✗ Lens cap for camera lens: Render timeout
  [1637] Blue kite on desk.
      ✗ Blue kite on desk.: Render failed: ERROR: Parser error: syntax error in file ../../../../../tmp/tmpmka2yi5j/test.scad, line 72
Can't parse file '/tmp/tmpmka2yi5j/test.scad'!


  [1643] Cog on gear.
      ✗ Cog on gear.: Render failed: WARNING: Too many unnamed arguments supplied in file test.scad, line 28
WARNING: Unable to convert translate(0) parameter to a vec3 or vec2 of numbers in file test.scad, line 28
WARNING: Can't open im
  [1646] Black and white dot pattern
      ✗ Black and white dot pattern: Render failed: DEPRECATED: polyhedron(triangles=[]) will be removed in future releases. Use polyhedron(faces=[]) instead.
ERROR: The given mesh is not closed! Unable to convert to CGAL_Nef_Polyhedron.
ERROR: The giv
  [1647] Metal box with black lid.
      ✗ Metal box with black lid.: Render failed: DEPRECATED: polyhedron(triangles=[]) will be removed in future releases. Use polyhedron(faces=[]) instead.
ERROR: The given mesh is not closed! Unable to convert to CGAL_Nef_Polyhedron.
ERROR: The giv
  [1648] Gun with horn attachment.
      ✗ Gun with horn attachment.: Render timeout
  [1649] Blue rope coil.
      ✗ Blue rope coil.: Render timeout
  [1654] Yellow and gray 3d cube.
      ✗ Yellow and gray 3d cube.: Render failed: WARNING: Can't open library 'write.scad'.
ERROR: Parser error: syntax error in file ../../../../../tmp/tmpn7pxgtm0/test.scad, line 209
Can't parse file '/tmp/tmpn7pxgtm0/test.scad'!


  [1662] Plastic table on paper.
      ✗ Plastic table on paper.: Render failed: ERROR: Parser error: syntax error in file ../../../../../tmp/tmpqh408el7/test.scad, line 3
Can't parse file '/tmp/tmpqh408el7/test.scad'!


  [1669] Rubik's cube with red light
      ✗ Rubik's cube with red light: Render timeout
  [1671] Swiss army knife.
      ✗ Swiss army knife.: Render timeout
  [1675] A man on a street
      ✗ A man on a street: Render timeout
  [1676] Gears
      ✗ Gears: Render timeout
  [1711] Bicycle seat cover
      ✗ Bicycle seat cover: Render failed: ERROR: Parser error: syntax error in file ../../../../../tmp/tmpdszjysa9/test.scad, line 1
Can't parse file '/tmp/tmpdszjysa9/test.scad'!


  [1712] Three bowls, one large, two
      ✗ Three bowls, one large, two: Render timeout
  [1724] Red 3d printed gear
      ✗ Red 3d printed gear: Render timeout
  [1735] Cardboard jigsaw puzzle pieces.
      ✗ Cardboard jigsaw puzzle pieces.: Render failed: Geometries in cache: 115
Geometry cache size in bytes: 53808
CGAL Polyhedrons in cache: 0
CGAL cache size in bytes: 0
Total rendering time: 0:00:00.005
   Top level object is a 2D object:
   Contours:
  [1737] Computer keyboard key.
      ✗ Computer keyboard key.: Render failed: Geometries in cache: 131
Geometry cache size in bytes: 44208
CGAL Polyhedrons in cache: 0
CGAL cache size in bytes: 0
Total rendering time: 0:00:00.003
   Top level object is a 2D object:
   Contours:
  [1742] Blue plastic disk.
      ✗ Blue plastic disk.: Render failed: ERROR: Parser error: syntax error in file ../../../../../tmp/tmpu5r0hbkk/test.scad, line 104
Can't parse file '/tmp/tmpu5r0hbkk/test.scad'!


  [1757] Spool of film on stand.
      ✗ Spool of film on stand.: Render timeout
  [1767] Straw holder with straws in
      ✗ Straw holder with straws in: Render timeout
  [1769] Flower on refrigerator.
      ✗ Flower on refrigerator.: Render timeout
  [1772] Metal bolt with nut.
      ✗ Metal bolt with nut.: Render failed: ERROR: Parser error: syntax error in file ../../../../../tmp/tmpc_9jm1h5/test.scad, line 101
Can't parse file '/tmp/tmpc_9jm1h5/test.scad'!


  [1780] Orange jack o lanterns.
      ✗ Orange jack o lanterns.: Render failed: ERROR: Parser error: syntax error in file ../../../../../tmp/tmp1hmo9y7p/test.scad, line 5
Can't parse file '/tmp/tmp1hmo9y7p/test.scad'!


  [1784] Gears on paper.
      ✗ Gears on paper.: Render failed: WARNING: Too many unnamed arguments supplied in file test.scad, line 135

  [1788] Plastic cup on holder.
      ✗ Plastic cup on holder.: Render timeout
  [1789] Small metal part with decorations.
      ✗ Small metal part with decorations.: Render timeout
  [1794] Green puzzle.
      ✗ Green puzzle.: Render timeout
  [1797] Gears on sign with word
      ✗ Gears on sign with word: Render failed: ERROR: Parser error: syntax error in file ../../../../../tmp/tmpreagoiqh/test.scad, line 5
Can't parse file '/tmp/tmpreagoiqh/test.scad'!


  [1810] Spiral staircase with handrail.
      ✗ Spiral staircase with handrail.: Render timeout
  [1811] Yellow cup with hole.
      ✗ Yellow cup with hole.: Render timeout
  [1813] Plastic crate with coins.
      ✗ Plastic crate with coins.: Render timeout
  [1816] Spiral coil pattern.
      ✗ Spiral coil pattern.: Render timeout
  [1820] Small plastic snowman.
      ✗ Small plastic snowman.: Render failed: WARNING: Can't open library 'write/Write.scad'.
ERROR: Parser error: syntax error in file ../../../../../tmp/tmp1j59cr9c/test.scad, line 339
Can't parse file '/tmp/tmp1j59cr9c/test.scad'!


  [1826] Snowman on skis.
      ✗ Snowman on skis.: Render timeout
  [1830] Snowman toy.
      ✗ Snowman toy.: Render timeout
  [1845] White ceramic sink with faucet.
      ✗ White ceramic sink with faucet.: Render failed: ERROR: Parser error: syntax error in file ../../../../../tmp/tmpev5xs4ki/test.scad, line 73
Can't parse file '/tmp/tmpev5xs4ki/test.scad'!


  [1850] Blue table on floor.
      ✗ Blue table on floor.: Render timeout
  [1866] Gold ring bracelet.
      ✗ Gold ring bracelet.: Render failed: WARNING: Can't open library 'utils/build_plate.scad'.
WARNING: Can't open include file 'write/Write.scad'.
WARNING: Can't open include file 'bezier.scad'.
WARNING: Can't open library 'bezier.scad'.
WA
  [1871] 3d plastic honeycomb tile.
      ✗ 3d plastic honeycomb tile.: Render timeout
  [1874] Yellow cylinder with chain link.
      ✗ Yellow cylinder with chain link.: Render timeout
  [1879] The object is an angel.
      ✗ The object is an angel.: Render timeout
  [1884] A green lamp.
      ✗ A green lamp.: Render failed: ERROR: Parser error: syntax error in file ../../../../../tmp/tmpp12kbd5c/test.scad, line 61
Can't parse file '/tmp/tmpp12kbd5c/test.scad'!


  [1889] Gears are white.
      ✗ Gears are white.: Render timeout
  [1900] Lens cover on table.
      ✗ Lens cover on table.: Render timeout
  [1902] Yellow pine cone.
      ✗ Yellow pine cone.: Render timeout
  [1917] Pink rectangular prism.
      ✗ Pink rectangular prism.: Render failed: ERROR: Parser error: syntax error in file ../../../../../tmp/tmpag7zzdv2/test.scad, line 38
Can't parse file '/tmp/tmpag7zzdv2/test.scad'!


  [1920] Blue vase on floor.
      ✗ Blue vase on floor.: Render failed: WARNING: Can't open library 'write/Write.scad'.
WARNING: Ignoring unknown module 'write' in file test.scad, line 87
Geometries in cache: 1
Geometry cache size in bytes: 0
CGAL Polyhedrons in cache: 0

  [1927] Jewelry display on table.
      ✗ Jewelry display on table.: Render timeout
  [1929] Baby bottle with caps.
      ✗ Baby bottle with caps.: Render timeout
  [1934] Bike mount on handlebar
      ✗ Bike mount on handlebar: Render timeout
  [1936] Cork board on wall.
      ✗ Cork board on wall.: Render failed: WARNING: Can't open library 'utils/build_plate.scad'.
WARNING: Can't open library 'write/Write.scad'.
ERROR: Parser error: syntax error in file ../../../../../tmp/tmpa7y3520y/test.scad, line 117
Can't
  [1937] Toy bricks, blue and white.
      ✗ Toy bricks, blue and white.: Render failed: ERROR: Parser error: syntax error in file ../../../../../tmp/tmp90ick7ed/test.scad, line 237
Can't parse file '/tmp/tmp90ick7ed/test.scad'!


  [1939] Star shaped floor mat
      ✗ Star shaped floor mat: Render failed: ERROR: Parser error: syntax error in file ../../../../../tmp/tmptm4dbz9w/test.scad, line 46
Can't parse file '/tmp/tmptm4dbz9w/test.scad'!


  [1940] Bike rack, black plastic, gray
      ✗ Bike rack, black plastic, gray: Render failed: ERROR: Parser error: syntax error in file ../../../../../tmp/tmpyj65s4vz/test.scad, line 88
Can't parse file '/tmp/tmpyj65s4vz/test.scad'!


  [1946] Legos on table.
      ✗ Legos on table.: Render failed: ERROR: Parser error: syntax error in file ../../../../../tmp/tmpr4uhligo/test.scad, line 1
Can't parse file '/tmp/tmpr4uhligo/test.scad'!


  [1952] Plastic furniture parts.
      ✗ Plastic furniture parts.: Render failed: ERROR: Parser error: syntax error in file ../../../../../tmp/tmprw5yz_vx/test.scad, line 1
Can't parse file '/tmp/tmprw5yz_vx/test.scad'!


  [1958] Oven mitts on rack.
      ✗ Oven mitts on rack.: Render timeout
  [1959] Two toy gun parts.
      ✗ Two toy gun parts.: Render failed: ERROR: Parser error: syntax error in file ../../../../../tmp/tmp3ytm1bhz/test.scad, line 360
Can't parse file '/tmp/tmp3ytm1bhz/test.scad'!


  [1961] Spools of thread on table.
      ✗ Spools of thread on table.: Render failed: ERROR: Parser error: syntax error in file ../../../../../tmp/tmpwh_y2lfa/test.scad, line 26
Can't parse file '/tmp/tmpwh_y2lfa/test.scad'!


  [1962] Model death star, laptop computer,
      ✗ Model death star, laptop computer,: Render timeout
  [1966] Plastic geometric shapes.
      ✗ Plastic geometric shapes.: Render failed: ERROR: Parser error: syntax error in file ../../../../../tmp/tmpns7i76q7/test.scad, line 1
Can't parse file '/tmp/tmpns7i76q7/test.scad'!


  [1973] Make a drawing.
      ✗ Make a drawing.: Render failed: ERROR: Parser error: syntax error in file ../../../../../tmp/tmpniiy53so/test.scad, line 1
Can't parse file '/tmp/tmpniiy53so/test.scad'!


  [1977] Collection of mini-sandwich maker.
      ✗ Collection of mini-sandwich maker.: Render failed: ERROR: Parser error: syntax error in file ../../../../../tmp/tmpbrom9zmy/test.scad, line 1
Can't parse file '/tmp/tmpbrom9zmy/test.scad'!


  [1979] This is a blue plastic
      ✗ This is a blue plastic: Render timeout
  [1980] Red, white, black cylinders.
      ✗ Red, white, black cylinders.: Render failed: ERROR: Parser error: syntax error in file ../../../../../tmp/tmp5eracd9o/test.scad, line 55
Can't parse file '/tmp/tmp5eracd9o/test.scad'!


  [1987] Office supply drawer with items.
      ✗ Office supply drawer with items.: Render timeout
  [1993] Measuring cups in colors.
      ✗ Measuring cups in colors.: Render failed: ERROR: Parser error: syntax error in file ../../../../../tmp/tmpgp0g572u/test.scad, line 1
Can't parse file '/tmp/tmpgp0g572u/test.scad'!


  [2007] A black round lid.
      ✗ A black round lid.: Render timeout
  [2008] Metal tube on table.
      ✗ Metal tube on table.: Render failed: WARNING: Can't open import file '/tmp/tmp2uik75o4/Handle_nohole2.stl', import() at line 13
Geometries in cache: 5
Geometry cache size in bytes: 34360
CGAL Polyhedrons in cache: 1
CGAL cache size in by
  [2015] Molecule with double helix backbone
      ✗ Molecule with double helix backbone: Render timeout
  [2016] 3d model of letter q
      ✗ 3d model of letter q: Render timeout
  [2019] Snowflake pattern on black background.
      ✗ Snowflake pattern on black background.: Render timeout
  [2036] Blue plant on table.
      ✗ Blue plant on table.: Render timeout
  [2037] Shells made of plastic.
      ✗ Shells made of plastic.: Render timeout
  [2040] Mini sandwiches, maker, twist.
      ✗ Mini sandwiches, maker, twist.: Render failed: ERROR: Parser error: syntax error in file ../../../../../tmp/tmp49lj_jv4/test.scad, line 1
Can't parse file '/tmp/tmp49lj_jv4/test.scad'!


  [2043] Blue, hexagonal sculpture.
      ✗ Blue, hexagonal sculpture.: Render timeout
  [2049] Candle holder on desk.
      ✗ Candle holder on desk.: Render timeout
  [2051] Rack of electronic chips on
      ✗ Rack of electronic chips on: Render timeout
  [2058] Plastic soldiers on board.
      ✗ Plastic soldiers on board.: Render failed: Geometries in cache: 1
Geometry cache size in bytes: 0
CGAL Polyhedrons in cache: 0
CGAL cache size in bytes: 0
Total rendering time: 0:00:00.000
Current top level object is empty.

  [2060] Blue ruler.
      ✗ Blue ruler.: Render timeout
  [2063] Blue object on table.
      ✗ Blue object on table.: Render timeout
  [2064] Red circle on green table.
      ✗ Red circle on green table.: Render timeout
  [2074] Computer screen with image of
      ✗ Computer screen with image of: Render timeout
  [2076] Flange bolt pattern.
      ✗ Flange bolt pattern.: Render timeout
  [2079] The logo is on a
      ✗ The logo is on a: Render failed: ERROR: Parser error: syntax error in file ../../../../../tmp/tmp5orwehu8/test.scad, line 1
Can't parse file '/tmp/tmp5orwehu8/test.scad'!


  [2093] Small pink minion figure.
      ✗ Small pink minion figure.: Render failed: WARNING: Can't open library 'write/write.scad'.
WARNING: Ignoring unknown module 'write' in file test.scad, line 11
WARNING: Can't open import file '/tmp/tmp23nzucf5/minion_heart_base.stl', import() a
  [2099] Three vases with lids on
      ✗ Three vases with lids on: Render timeout
  [2112] Blue fence with spikes on
      ✗ Blue fence with spikes on: Render timeout
  [2114] Fake plastic word charm.
      ✗ Fake plastic word charm.: Render timeout
  [2128] Small cardboard booklet with ring.
      ✗ Small cardboard booklet with ring.: Render failed: DEPRECATED: child() will be removed in future releases. Use children() instead.
WARNING: Too many unnamed arguments supplied in file test.scad, line 87
ERROR: The given mesh is not closed! Unable to c
  [2134] Bottle of air freshener.
      ✗ Bottle of air freshener.: Render failed: ERROR: Parser error: syntax error in file ../../../../../tmp/tmpv7n_rf5d/test.scad, line 10
Can't parse file '/tmp/tmpv7n_rf5d/test.scad'!


  [2147] Cookie cutter, blue
      ✗ Cookie cutter, blue: Render failed: ERROR: Parser error: syntax error in file ../../../../../tmp/tmpvcmcocjp/test.scad, line 1
Can't parse file '/tmp/tmpvcmcocjp/test.scad'!


  [2148] Personalized plate maker.
      ✗ Personalized plate maker.: Render failed: ERROR: Parser error: syntax error in file ../../../../../tmp/tmpfgje4dar/test.scad, line 138
Can't parse file '/tmp/tmpfgje4dar/test.scad'!


  [2160] Two circles with holes on
      ✗ Two circles with holes on: Render timeout
  [2179] Decorated Easter egg with maze.
      ✗ Decorated Easter egg with maze.: Render failed: ERROR: Parser error: syntax error in file ../../../../../tmp/tmphzjw6cqq/test.scad, line 1
Can't parse file '/tmp/tmphzjw6cqq/test.scad'!


  [2181] 3d printed blue robot.
      ✗ 3d printed blue robot.: Render timeout
  [2183] Office supplies in holder.
      ✗ Office supplies in holder.: Render timeout
  [2189] Blue top on blue base.
      ✗ Blue top on blue base.: Render timeout
  [2193] Blue block construction set.
      ✗ Blue block construction set.: Render failed: ERROR: Parser error: syntax error in file ../../../../../tmp/tmp4n6s9wjm/test.scad, line 35
Can't parse file '/tmp/tmp4n6s9wjm/test.scad'!


  [2201] Blue box with paper money.
      ✗ Blue box with paper money.: Render failed: ERROR: Parser error: syntax error in file ../../../../../tmp/tmpbc7g4__v/test.scad, line 14
Can't parse file '/tmp/tmpbc7g4__v/test.scad'!


  [2209] Yellow checkerboard pattern
      ✗ Yellow checkerboard pattern: Render timeout
  [2217] Crate organizer
      ✗ Crate organizer: Render timeout
  [2221] Plastic yellow foam with holes
      ✗ Plastic yellow foam with holes: Render timeout
  [2223] A blue logo.
      ✗ A blue logo.: Render timeout
  [2232] Small metal pin
      ✗ Small metal pin: Render timeout
  [2234] Spools of spool.
      ✗ Spools of spool.: Render timeout
  [2235] Gears, gray background.
      ✗ Gears, gray background.: Render failed: ERROR: The given mesh is not closed! Unable to convert to CGAL_Nef_Polyhedron.
Geometries in cache: 84
Geometry cache size in bytes: 380960
CGAL Polyhedrons in cache: 1
CGAL cache size in bytes: 0
Tot
  [2239] Gears.
      ✗ Gears.: Render failed: ERROR: Parser error: syntax error in file ../../../../../tmp/tmp_ce546um/test.scad, line 98
Can't parse file '/tmp/tmp_ce546um/test.scad'!


  [2241] Paper with dots.
      ✗ Paper with dots.: Render timeout
  [2242] Yellow part on table.
      ✗ Yellow part on table.: Render timeout
  [2248] Sign on sidewalk.
      ✗ Sign on sidewalk.: Render timeout
  [2249] Blue bunny on floor.
      ✗ Blue bunny on floor.: Render failed: ERROR: Parser error: syntax error in file ../../../../../tmp/tmp7pvqthos/test.scad, line 196
Can't parse file '/tmp/tmp7pvqthos/test.scad'!


  [2253] Two clouds, smiley face, heart.
      ✗ Two clouds, smiley face, heart.: Render failed: Geometries in cache: 2
Geometry cache size in bytes: 48
CGAL Polyhedrons in cache: 0
CGAL cache size in bytes: 0
Total rendering time: 0:00:00.000
Current top level object is empty.

  [2275] Crystal structure molecule.
      ✗ Crystal structure molecule.: Render timeout
  [2277] Red pulley on a belt.
      ✗ Red pulley on a belt.: Render failed: ERROR: Parser error: syntax error in file ../../../../../tmp/tmpmriz37t3/test.scad, line 29
Can't parse file '/tmp/tmpmriz37t3/test.scad'!


  [2280] Cable receptacle for electric vehicle.
      ✗ Cable receptacle for electric vehicle.: Render failed: ERROR: Parser error: syntax error in file ../../../../../tmp/tmpw469jqq_/test.scad, line 1
Can't parse file '/tmp/tmpw469jqq_/test.scad'!


  [2298] Clamp holding wires together.
      ✗ Clamp holding wires together.: Render failed: ERROR: Parser error: syntax error in file ../../../../../tmp/tmpbj4m2xfv/test.scad, line 224
Can't parse file '/tmp/tmpbj4m2xfv/test.scad'!


  [2306] Shoe sole in photo.
      ✗ Shoe sole in photo.: Render timeout
  [2311] Globe with rings
      ✗ Globe with rings: Render timeout
  [2314] Colorful pencils in cup.
      ✗ Colorful pencils in cup.: Render timeout
  [2319] Lego bricks
      ✗ Lego bricks: Render timeout
  [2330] Red toolbox with tools.
      ✗ Red toolbox with tools.: Render failed: ERROR: Parser error: syntax error in file ../../../../../tmp/tmp8bpc3ine/test.scad, line 137
Can't parse file '/tmp/tmp8bpc3ine/test.scad'!


  [2332] Yellow box of nails.
      ✗ Yellow box of nails.: Render failed: ERROR: Parser error: syntax error in file ../../../../../tmp/tmpzfojv6hq/test.scad, line 88
Can't parse file '/tmp/tmpzfojv6hq/test.scad'!


  [2333] Checker board is blue
      ✗ Checker board is blue: Render timeout
  [2334] Blue objects on floor.
      ✗ Blue objects on floor.: Render failed: ERROR: Parser error: syntax error in file ../../../../../tmp/tmpo1k8rpxc/test.scad, line 256
Can't parse file '/tmp/tmpo1k8rpxc/test.scad'!


  [2353] Ball of many balls.
      ✗ Ball of many balls.: Render timeout
  [2366] Gears, 6.
      ✗ Gears, 6.: Render failed: ERROR: Parser error: syntax error in file ../../../../../tmp/tmp_brjsl5g/test.scad, line 76
Can't parse file '/tmp/tmp_brjsl5g/test.scad'!


  [2376] Camera on tripod.
      ✗ Camera on tripod.: Render failed: ERROR: Parser error: syntax error in file ../../../../../tmp/tmpm7i7inii/test.scad, line 17
Can't parse file '/tmp/tmpm7i7inii/test.scad'!


  [2381] Green fish image on wall.
      ✗ Green fish image on wall.: Render timeout
  [2386] Digital device with wires.
      ✗ Digital device with wires.: Render failed: ERROR: Parser error: syntax error in file ../../../../../tmp/tmpgh4jn_r9/test.scad, line 427
Can't parse file '/tmp/tmpgh4jn_r9/test.scad'!


  [2394] Cage for small robots.
      ✗ Cage for small robots.: Render timeout
  [2405] Plastic blue archway.
      ✗ Plastic blue archway.: Render failed: ERROR: Parser error: syntax error in file ../../../../../tmp/tmpmcreaul7/test.scad, line 69
Can't parse file '/tmp/tmpmcreaul7/test.scad'!


  [2409] Open black box with fan.
      ✗ Open black box with fan.: Render timeout
  [2415] Blue plastic bucket on table.
      ✗ Blue plastic bucket on table.: Render failed: ERROR: Parser error: syntax error in file ../../../../../tmp/tmpc2xepkym/test.scad, line 1
Can't parse file '/tmp/tmpc2xepkym/test.scad'!


  [2416] Storage boxes - ebox, drawers,
      ✗ Storage boxes - ebox, drawers,: Render timeout
  [2418] White d6 die with symbols.
      ✗ White d6 die with symbols.: Render timeout
  [2437] Plastic ring with ridges.
      ✗ Plastic ring with ridges.: Render failed: ERROR: Parser error: syntax error in file ../../../../../tmp/tmpra3zjy3d/test.scad, line 35
Can't parse file '/tmp/tmpra3zjy3d/test.scad'!


  [2441] Drain in sink.
      ✗ Drain in sink.: Render timeout
  [2444] A small house.
      ✗ A small house.: Render timeout
  [2446] White plastic netting.
      ✗ White plastic netting.: Render timeout
  [2447] Gears on image.
      ✗ Gears on image.: Render failed: ERROR: Parser error: syntax error in file ../../../../../tmp/tmphry9e9qe/test.scad, line 8
Can't parse file '/tmp/tmphry9e9qe/test.scad'!


  [2451] Candle holder with sticks.
      ✗ Candle holder with sticks.: Render timeout
  [2452] Blue plastic castle toy.
      ✗ Blue plastic castle toy.: Render timeout
  [2455] Gears in motion.
      ✗ Gears in motion.: Render timeout
  [2460] Two wooden houses side by
      ✗ Two wooden houses side by: Render timeout
  [2461] Lego train set.
      ✗ Lego train set.: Render timeout
  [2462] Red wooden building.
      ✗ Red wooden building.: Render timeout
  [2464] Plastic army men chess set.
      ✗ Plastic army men chess set.: Render timeout
  [2466] Purple and silver light bulb.
      ✗ Purple and silver light bulb.: Render failed: ERROR: Parser error: syntax error in file ../../../../../tmp/tmp36vbjkih/test.scad, line 200
Can't parse file '/tmp/tmp36vbjkih/test.scad'!


  [2475] Toy tank on table.
      ✗ Toy tank on table.: Render timeout
  [2479] Red skeleton structure.
      ✗ Red skeleton structure.: Render timeout
  [2480] Plastic container.
      ✗ Plastic container.: Render timeout
  [2485] Tickle logo on table.
      ✗ Tickle logo on table.: Render timeout
  [2487] A pipe shaped like a
      ✗ A pipe shaped like a: Render timeout
  [2491] Twisted, spiral, screw
      ✗ Twisted, spiral, screw: Render timeout
  [2492] Bulletproof ring with coins on
      ✗ Bulletproof ring with coins on: Render timeout
  [2493] Blue plastic toy airplane.
      ✗ Blue plastic toy airplane.: Render timeout
  [2497] Red plastic pliers, metal bit
      ✗ Red plastic pliers, metal bit: Render timeout
  [2499] Rear wheel on car.
      ✗ Rear wheel on car.: Render timeout
  [2511] Drone case on desk.
      ✗ Drone case on desk.: Render timeout
  [2513] Purple plastic legos on machine.
      ✗ Purple plastic legos on machine.: Render failed: ERROR: Parser error: syntax error in file ../../../../../tmp/tmptyhd9982/test.scad, line 132
Can't parse file '/tmp/tmptyhd9982/test.scad'!


  [2514] Gun parts.
      ✗ Gun parts.: Render failed: ERROR: Parser error: syntax error in file ../../../../../tmp/tmp93etwy_g/test.scad, line 198
Can't parse file '/tmp/tmp93etwy_g/test.scad'!


  [2515] Halloween ball.
      ✗ Halloween ball.: Render timeout
  [2517] A handmade paper circuit board.
      ✗ A handmade paper circuit board.: Render timeout
  [2518] Metal sculpture on pedestal.
      ✗ Metal sculpture on pedestal.: Render timeout
  [2521] Blue coiled rope.
      ✗ Blue coiled rope.: Render timeout
  [2522] Metal sculpture on pedestal
      ✗ Metal sculpture on pedestal: Render timeout
  [2528] 3d printer, 3d print.
      ✗ 3d printer, 3d print.: Render timeout
  [2531] Lego bridge on desk.
      ✗ Lego bridge on desk.: Render timeout
  [2533] Penis clip-on vibrator.
      ✗ Penis clip-on vibrator.: Render failed: WARNING: Can't open include file '..\thread\Thread.scad'.
ERROR: Parser error: syntax error in file ../../../../../tmp/tmp8u4jki48/test.scad, line 21
Can't parse file '/tmp/tmp8u4jki48/test.scad'!


  [2537] Computer monitor
      ✗ Computer monitor: Render failed: ERROR: Parser error: syntax error in file ../../../../../tmp/tmpvn8zvvlu/test.scad, line 112
Can't parse file '/tmp/tmpvn8zvvlu/test.scad'!


  [2538] Digital illustration of dragon.
      ✗ Digital illustration of dragon.: Render failed: ERROR: Parser error: syntax error in file ../../../../../tmp/tmpsrkuygzf/test.scad, line 87
Can't parse file '/tmp/tmpsrkuygzf/test.scad'!


  [2543] Aquarium.
      ✗ Aquarium.: Render timeout
  [2547] Cartoon witch on broomstick.
      ✗ Cartoon witch on broomstick.: Render failed: ERROR: Parser error: syntax error in file ../../../../../tmp/tmpw7wnr8am/test.scad, line 87
Can't parse file '/tmp/tmpw7wnr8am/test.scad'!


  [2554] Candles on shelf.
      ✗ Candles on shelf.: Render timeout
  [2556] Garden hose.
      ✗ Garden hose.: Render timeout
  [2558] Electronic device.
      ✗ Electronic device.: Render failed: WARNING: Can't open include file 'configuration.scad'.
ERROR: Parser error: syntax error in file ../../../../../tmp/tmp0h12kt8i/test.scad, line 88
Can't parse file '/tmp/tmp0h12kt8i/test.scad'!


  [2559] Gears are visible
      ✗ Gears are visible: Render failed: WARNING: Can't open import file '/Users/anadarey/Desktop/M12_V2CC.stl', import() at line 1
WARNING: Can't open import file '/Users/anadarey/Desktop/M12_V2CC.stl', import() at line 2
Geometries in cach
  [2566] Wooden peg with screw hole.
      ✗ Wooden peg with screw hole.: Render timeout
  [2568] Puzzle
      ✗ Puzzle: Render timeout
  [2575] Maze on plane.
      ✗ Maze on plane.: Render timeout
  [2580] Paper pine cones.
      ✗ Paper pine cones.: Render timeout
  [2586] Roll of spooled wire.
      ✗ Roll of spooled wire.: Render failed: ERROR: Parser error: syntax error in file ../../../../../tmp/tmphvst91pq/test.scad, line 86
Can't parse file '/tmp/tmphvst91pq/test.scad'!


  [2596] Blue pipe fitting on table.
      ✗ Blue pipe fitting on table.: Render timeout
  [2599] Metal, springs, circular.
      ✗ Metal, springs, circular.: Render timeout
  [2609] Ring on table top.
      ✗ Ring on table top.: Render timeout
  [2614] Dominoes.
      ✗ Dominoes.: Render failed: ERROR: Parser error: syntax error in file ../../../../../tmp/tmpg7dvksid/test.scad, line 48
Can't parse file '/tmp/tmpg7dvksid/test.scad'!


  [2618] Speaker on table.
      ✗ Speaker on table.: Render timeout
  [2622] Gears on a table.
      ✗ Gears on a table.: Render timeout
  [2623] Blue structure.
      ✗ Blue structure.: Render timeout
  [2629] Blue sculptures on table.
      ✗ Blue sculptures on table.: Render timeout
  [2631] Plastic ring on table.
      ✗ Plastic ring on table.: Render failed: Geometries in cache: 8
Geometry cache size in bytes: 49072
CGAL Polyhedrons in cache: 2
CGAL cache size in bytes: 1073952
Total rendering time: 0:00:01.377
   Top level object is a 2D object:
   Conto
  [2632] Spider on table.
      ✗ Spider on table.: Render timeout
  [2638] Gears on a machine
      ✗ Gears on a machine: Render failed: ERROR: Parser error: syntax error in file ../../../../../tmp/tmphw9g1oa2/test.scad, line 52
Can't parse file '/tmp/tmphw9g1oa2/test.scad'!


  [2639] Spring coil on table.
      ✗ Spring coil on table.: Render timeout
  [2647] Red train model.
      ✗ Red train model.: Render timeout
  [2648] Blue plastic pipe part.
      ✗ Blue plastic pipe part.: Render failed: ERROR: Parser error: syntax error in file ../../../../../tmp/tmpr9q6xv2q/test.scad, line 82
Can't parse file '/tmp/tmpr9q6xv2q/test.scad'!


  [2653] Jigsaw puzzle box
      ✗ Jigsaw puzzle box: Render timeout
  [2654] Earring stand with earrings.
      ✗ Earring stand with earrings.: Render timeout
  [2656] Ruler, needle point on plastic
      ✗ Ruler, needle point on plastic: Render failed: ERROR: Parser error: syntax error in file ../../../../../tmp/tmp19qy434g/test.scad, line 64
Can't parse file '/tmp/tmp19qy434g/test.scad'!


  [2667] O ring, blue color, 2
      ✗ O ring, blue color, 2: Render timeout
  [2669] Gears on gears.
      ✗ Gears on gears.: Render failed: ERROR: Parser error: syntax error in file ../../../../../tmp/tmpyo451uxi/test.scad, line 31
Can't parse file '/tmp/tmpyo451uxi/test.scad'!


  [2670] Wooden table.
      ✗ Wooden table.: Render failed: Geometries in cache: 1
Geometry cache size in bytes: 0
CGAL Polyhedrons in cache: 0
CGAL cache size in bytes: 0
Total rendering time: 0:00:00.000
Current top level object is empty.

  [2679] 3D model of a triangle.
      ✗ 3D model of a triangle.: Render timeout
  [2682] Blue geometric structure.
      ✗ Blue geometric structure.: Render timeout
  [2683] A letter.
      ✗ A letter.: Render timeout
  [2685] Cube shaped object on floor.
      ✗ Cube shaped object on floor.: Render timeout
  [2686] Blue geometric object.
      ✗ Blue geometric object.: Render timeout
  [2689] A blue plastic ring.
      ✗ A blue plastic ring.: Render timeout
  [2694] Toilet seat with lid up.
      ✗ Toilet seat with lid up.: Render timeout
  [2695] Multicolored tiered tray stand.
      ✗ Multicolored tiered tray stand.: Render timeout
  [2701] Pair of scissors.
      ✗ Pair of scissors.: Render failed: ERROR: Parser error: syntax error in file ../../../../../tmp/tmpjsg283eh/test.scad, line 69
Can't parse file '/tmp/tmpjsg283eh/test.scad'!


  [2708] Blue plastic model plane.
      ✗ Blue plastic model plane.: Render failed: ERROR: Parser error: syntax error in file ../../../../../tmp/tmpbiph3avo/test.scad, line 34
Can't parse file '/tmp/tmpbiph3avo/test.scad'!


  [2715] Three vases on shelf.
      ✗ Three vases on shelf.: Render timeout
  [2720] 3D printed balloon.
      ✗ 3D printed balloon.: Render timeout
  [2725] This is a 3d print.
      ✗ This is a 3d print.: Render timeout
  [2729] Metal train track.
      ✗ Metal train track.: Render timeout
  [2740] Razor comb on tablecloth.
      ✗ Razor comb on tablecloth.: Render timeout
  [2754] Blue couch with a hole
      ✗ Blue couch with a hole: Render failed: WARNING: Can't open library 'cubeX.scad'.
ERROR: Parser error: syntax error in file ../../../../../tmp/tmp1iw3y7dq/test.scad, line 40
Can't parse file '/tmp/tmp1iw3y7dq/test.scad'!


  [2755] Blue puzzle piece.
      ✗ Blue puzzle piece.: Render failed: ERROR: Parser error: syntax error in file ../../../../../tmp/tmpbzk6jjru/test.scad, line 118
Can't parse file '/tmp/tmpbzk6jjru/test.scad'!


  [2756] Tennis racket with logo.
      ✗ Tennis racket with logo.: Render timeout
  [2759] Coaster, coin, coaster holder.
      ✗ Coaster, coin, coaster holder.: Render timeout
  [2769] Stick model made of white
      ✗ Stick model made of white: Render timeout
  [2774] Gears, gray background.
      ✗ Gears, gray background.: Render timeout
  [2779] Ring on table.
      ✗ Ring on table.: Render timeout
  [2781] Black ring on potato chip
      ✗ Black ring on potato chip: Render failed: WARNING: Can't open library 'Write.scad'.
ERROR: Parser error: syntax error in file ../../../../../tmp/tmpdzp0f2nl/test.scad, line 42
Can't parse file '/tmp/tmpdzp0f2nl/test.scad'!


  [2783] Blue plastic toy car.
      ✗ Blue plastic toy car.: Render failed: WARNING: Can't open include file 'configuration.scad'.
ERROR: Parser error: syntax error in file ../../../../../tmp/tmp4qgem7p7/test.scad, line 153
Can't parse file '/tmp/tmp4qgem7p7/test.scad'!


  [2797] Toilet paper dispenser.
      ✗ Toilet paper dispenser.: Render timeout
  [2802] Blue pot with hole.
      ✗ Blue pot with hole.: Render timeout
  [2805] Blue plastic fence pegs.
      ✗ Blue plastic fence pegs.: Render failed: ERROR: Parser error: syntax error in file ../../../../../tmp/tmpjl0xzdw0/test.scad, line 94
Can't parse file '/tmp/tmpjl0xzdw0/test.scad'!


  [2807] Three lego stands for charger.
      ✗ Three lego stands for charger.: Render failed: ERROR: Parser error: syntax error in file ../../../../../tmp/tmpat25r3n7/test.scad, line 34
Can't parse file '/tmp/tmpat25r3n7/test.scad'!


  [2808] Toilet paper holder.
      ✗ Toilet paper holder.: Render timeout
  [2811] Blue plastic object on table.
      ✗ Blue plastic object on table.: Render failed: WARNING: Can't open include file 'rcube.scad'.
ERROR: Parser error: syntax error in file ../../../../../tmp/tmpf8dgedae/test.scad, line 96
Can't parse file '/tmp/tmpf8dgedae/test.scad'!


  [2812] Car door handle.
      ✗ Car door handle.: Render timeout
  [2813] Windmill blade fan.
      ✗ Windmill blade fan.: Render timeout
  [2815] Stack of orange rings.
      ✗ Stack of orange rings.: Render timeout
  [2825] 3d cluster of spheres.
      ✗ 3d cluster of spheres.: Render timeout
  [2826] Headphones on ears.
      ✗ Headphones on ears.: Render timeout
  [2834] Blue legos on table.
      ✗ Blue legos on table.: Render timeout
  [2838] Blue plastic cupcake tin.
      ✗ Blue plastic cupcake tin.: Render timeout
  [2841] Artificial tree
      ✗ Artificial tree: Render timeout
  [2842] Blue bucket with holes.
      ✗ Blue bucket with holes.: Render timeout
  [2844] Lego blocks.
      ✗ Lego blocks.: Render failed: ERROR: Parser error: syntax error in file ../../../../../tmp/tmpzd8grhmy/test.scad, line 1
Can't parse file '/tmp/tmpzd8grhmy/test.scad'!


  [2845] Plastic mold for table top
      ✗ Plastic mold for table top: Render timeout
  [2850] Solar panel grid.
      ✗ Solar panel grid.: Render timeout
  [2851] Camera with strap attached.
      ✗ Camera with strap attached.: Render failed: ERROR: Parser error: syntax error in file ../../../../../tmp/tmpvf1m1h8y/test.scad, line 1
Can't parse file '/tmp/tmpvf1m1h8y/test.scad'!


  [2857] Headband with holes.
      ✗ Headband with holes.: Render timeout
  [2863] Plastic blue bucket on table.
      ✗ Plastic blue bucket on table.: Render timeout
  [2864] Three blue crates.
      ✗ Three blue crates.: Render timeout
  [2865] Bendable, colorful chain of linking
      ✗ Bendable, colorful chain of linking: Render failed: WARNING: Can't open library 'text_on.scad'.
ERROR: Parser error: syntax error in file ../../../../../tmp/tmpdjol4agr/test.scad, line 208
Can't parse file '/tmp/tmpdjol4agr/test.scad'!


  [2867] Cog wheel and gears image
      ✗ Cog wheel and gears image: Render timeout
  [2868] Blue table on ground.
      ✗ Blue table on ground.: Render failed: ERROR: Parser error: syntax error in file ../../../../../tmp/tmp_sfry7_v/test.scad, line 1
Can't parse file '/tmp/tmp_sfry7_v/test.scad'!


  [2872] Intricate silver gear mechanism.
      ✗ Intricate silver gear mechanism.: Render timeout
  [2873] Plastic cup on table.
      ✗ Plastic cup on table.: Render timeout
  [2878] Cartoonish blue figurine.
      ✗ Cartoonish blue figurine.: Render failed: ERROR: Parser error: syntax error in file ../../../../../tmp/tmphtrebli_/test.scad, line 102
Can't parse file '/tmp/tmphtrebli_/test.scad'!


  [2879] Spider toy on windowsill.
      ✗ Spider toy on windowsill.: Render timeout
  [2881] 3d model of motor.
      ✗ 3d model of motor.: Render timeout
  [2883] Candy candy cane.
      ✗ Candy candy cane.: Render timeout
  [2884] Small blue robot sitting down.
      ✗ Small blue robot sitting down.: Render failed: ERROR: Parser error: syntax error in file ../../../../../tmp/tmp5u8gdubu/test.scad, line 254
Can't parse file '/tmp/tmp5u8gdubu/test.scad'!


  [2887] Blue plastic chair on ground.
      ✗ Blue plastic chair on ground.: Render failed: ERROR: Parser error: syntax error in file ../../../../../tmp/tmpylyfe7yt/test.scad, line 49
Can't parse file '/tmp/tmpylyfe7yt/test.scad'!


  [2891] Plastic orange pumpkin carved with
      ✗ Plastic orange pumpkin carved with: Render timeout
  [2895] Miniature blue toy plane on
      ✗ Miniature blue toy plane on: Render timeout
  [2896] Springs and plugs.
      ✗ Springs and plugs.: Render timeout
  [2898] Six yellow and green propellers.
[...]
      ✗ Customizable parts drawer.: Render failed: ERROR: Parser error: syntax error in file ../../../../../tmp/tmpq91p3d0y/test.scad, line 603
Can't parse file '/tmp/tmpq91p3d0y/test.scad'!


  [6796] Metal machine in shop.
      ✗ Metal machine in shop.: Render failed: WARNING: Can't open include file 'Thingiverse/threads.scad'.
WARNING: Ignoring unknown module 'english_thread' in file test.scad, line 95
ECHO: "U3"
WARNING: Ignoring unknown module 'metric_thread' in
  [6798] 3D printed food holder.
      ✗ 3D printed food holder.: Render timeout
  [6800] Drawer with 3d printed parts.
      ✗ Drawer with 3d printed parts.: Render failed: ERROR: Parser error: syntax error in file ../../../../../tmp/tmpj97179cs/test.scad, line 214
Can't parse file '/tmp/tmpj97179cs/test.scad'!


  [6802] Axe hanging on the wall.
      ✗ Axe hanging on the wall.: Render timeout
  [6803] Plastic model, 3d printed, blue.
      ✗ Plastic model, 3d printed, blue.: Render failed: WARNING: Can't open include file 'Round-Anything/polyround.scad'.
WARNING: Can't open include file './openscad-reusables.scad'.
WARNING: Can't open include file './measures.scad'.
ERROR: Parser error:
  [6806] Tire with rim inside it.
      ✗ Tire with rim inside it.: Render timeout
  [6808] Text on bowling ball labeling
      ✗ Text on bowling ball labeling: Render timeout
  [6816] Rainbow plastic lego toy.
      ✗ Rainbow plastic lego toy.: Render timeout
  [6818] Cursive writing on wall.
      ✗ Cursive writing on wall.: Render failed: WARNING: Can't open import file '/tmp/tmp57hysm5h/Engine.stl', import() at line 33
WARNING: Can't open import file '/tmp/tmp57hysm5h/H.stl', import() at line 49
WARNING: Can't open import file '/tmp/t
  [6819] Cylindrical object on surface.
      ✗ Cylindrical object on surface.: Render timeout
  [6822] Bicycle pedal.
      ✗ Bicycle pedal.: Render failed: Geometries in cache: 41
Geometry cache size in bytes: 74160
CGAL Polyhedrons in cache: 0
CGAL cache size in bytes: 0
Total rendering time: 0:00:00.001
   Top level object is a 2D object:
   Contours: 
  [6826] Computer lamp with x men
      ✗ Computer lamp with x men: Render failed: ERROR: Parser error: syntax error in file ../../../../../tmp/tmptr6f26qi/test.scad, line 330
Can't parse file '/tmp/tmptr6f26qi/test.scad'!


  [6831] Puzzle box with items.
      ✗ Puzzle box with items.: Render timeout
  [6837] Lego set on table.
      ✗ Lego set on table.: Render failed: ERROR: Parser error: syntax error in file ../../../../../tmp/tmp74aw3gnl/test.scad, line 1
Can't parse file '/tmp/tmp74aw3gnl/test.scad'!


  [6842] Garden sprayer with nozzle
      ✗ Garden sprayer with nozzle: Render failed: ERROR: Parser error: syntax error in file ../../../../../tmp/tmp3l_ub14_/test.scad, line 58
Can't parse file '/tmp/tmp3l_ub14_/test.scad'!


  [6845] Rubik's cube shaped puzzle.
      ✗ Rubik's cube shaped puzzle.: Render failed: WARNING: Can't open include file 'BOSL/constants.scad'.
WARNING: Can't open library 'BOSL/masks.scad'.
WARNING: Ignoring unknown module 'chamfer' in file test.scad, line 86
WARNING: Ignoring unknown m
  [6847] Hard drive.
      ✗ Hard drive.: Render failed: WARNING: Can't open include file 'threadlib_solid.scad'.
WARNING: Can't open include file 'gears.scad'.
ERROR: Parser error: syntax error in file ../../../../../tmp/tmpwlnf1uw0/test.scad, line 516
Can
  [6856] Rainbow topographical map.
      ✗ Rainbow topographical map.: Render timeout
  [6859] Various music related items.
      ✗ Various music related items.: Render failed: ERROR: Parser error: syntax error in file ../../../../../tmp/tmpa9ok9ez6/test.scad, line 79
Can't parse file '/tmp/tmpa9ok9ez6/test.scad'!


  [6862] Blue plastic water bottle cap.
      ✗ Blue plastic water bottle cap.: Render timeout
  [6863] Parts of a car suspension
      ✗ Parts of a car suspension: Render failed: WARNING: Can't open library 'ENGCAD/ENGCAD.scad'.
Geometries in cache: 1
Geometry cache size in bytes: 0
CGAL Polyhedrons in cache: 0
CGAL cache size in bytes: 0
Total rendering time: 0:00:00.000
Curr
  [6869] Qr code stickers on wall.
      ✗ Qr code stickers on wall.: Render failed: ERROR: Parser error: syntax error in file ../../../../../tmp/tmpdd2qra02/test.scad, line 127
Can't parse file '/tmp/tmpdd2qra02/test.scad'!


  [6881] Lego faucet with blue bricks.
      ✗ Lego faucet with blue bricks.: Render timeout
  [6885] Chemical compound
      ✗ Chemical compound: Render timeout
  [6888] Lanyard with emblems.
      ✗ Lanyard with emblems.: Render timeout
  [6890] Blue wireframe ring.
      ✗ Blue wireframe ring.: Render timeout
  [6891] Coil of spooled tape.
      ✗ Coil of spooled tape.: Render timeout
  [6896] Tire on the car.
      ✗ Tire on the car.: Render failed: ERROR: Parser error: syntax error in file ../../../../../tmp/tmpm8i29_68/test.scad, line 1
Can't parse file '/tmp/tmpm8i29_68/test.scad'!


  [6904] Objects on desk.
      ✗ Objects on desk.: Render timeout
  [6908] Red sprockets on black base.
      ✗ Red sprockets on black base.: Render timeout
  [6909] Tool station.
      ✗ Tool station.: Render timeout
  [6910] Toothbrushes in cups
      ✗ Toothbrushes in cups: Render timeout
  [6911] Luggage tags.
      ✗ Luggage tags.: Render timeout
  [6914] Recessed lighting switch.
      ✗ Recessed lighting switch.: Render failed: ERROR: Parser error: syntax error in file ../../../../../tmp/tmpe0q34n7z/test.scad, line 1
Can't parse file '/tmp/tmpe0q34n7z/test.scad'!


  [6917] Camera remote controls.
      ✗ Camera remote controls.: Render failed: ERROR: Parser error: syntax error in file ../../../../../tmp/tmpebn7clr9/test.scad, line 158
Can't parse file '/tmp/tmpebn7clr9/test.scad'!


  [6919] Colorful necklace tags with words
      ✗ Colorful necklace tags with words: Render failed: ERROR: Parser error: syntax error in file ../../../../../tmp/tmpnekervnf/test.scad, line 57
Can't parse file '/tmp/tmpnekervnf/test.scad'!


  [6927] Plastic blue toothbrush holder.
      ✗ Plastic blue toothbrush holder.: Render failed: ERROR: Parser error: syntax error in file ../../../../../tmp/tmpcnruvi5j/test.scad, line 104
Can't parse file '/tmp/tmpcnruvi5j/test.scad'!


  [6932] Ring and pen holder.
      ✗ Ring and pen holder.: Render timeout
  [6945] Toolkit for batteries.
      ✗ Toolkit for batteries.: Render timeout
  [6949] Chess pieces on board.
      ✗ Chess pieces on board.: Render failed: WARNING: Can't open DXF file '/tmp/tmp9wp_qb23/king_profile.dxf'.
WARNING: Can't open DXF file '/tmp/tmp9wp_qb23/cross_profile.dxf'.
Geometries in cache: 10
Geometry cache size in bytes: 56304
CGAL Po
  [6953] Two blue rings on transparent
      ✗ Two blue rings on transparent: Render failed: ERROR: Parser error: syntax error in file ../../../../../tmp/tmp6v630nq9/test.scad, line 327
Can't parse file '/tmp/tmp6v630nq9/test.scad'!


  [6955] Blue plastic pipe connector.
      ✗ Blue plastic pipe connector.: Render failed: WARNING: Can't open library 'threads.scad'.
ERROR: Parser error: syntax error in file ../../../../../tmp/tmpph53ceuy/test.scad, line 88
Can't parse file '/tmp/tmpph53ceuy/test.scad'!


  [6957] Piece of wood with compartments
      ✗ Piece of wood with compartments: Render failed: WARNING: Can't open include file 'Round-Anything-master/polyround.scad'.
WARNING: Ignoring unknown function 'CWorCCW' in file test.scad, line 10
WARNING: undefined operation (number * undefined) in fi
  [6968] Pipes and nuts, no tools.
      ✗ Pipes and nuts, no tools.: Render timeout
  [6972] Cake mixer with attachment.
      ✗ Cake mixer with attachment.: Render timeout
  [6975] Pile of blue objects.
      ✗ Pile of blue objects.: Render failed: WARNING: Can't open include file 'BOSL/constants.scad'.
WARNING: Can't open library 'BOSL/shapes.scad'.
WARNING: Can't open library 'BOSL/masks.scad'.
WARNING: Ignoring unknown module 'cuboid' in file
  [6976] Speaker on table.
      ✗ Speaker on table.: Render timeout
  [6989] Plastic egg shaped container.
      ✗ Plastic egg shaped container.: Render timeout
  [6992] Battery pack prototype with a
      ✗ Battery pack prototype with a: Render timeout
  [6996] Foldable blue rack of trays.
      ✗ Foldable blue rack of trays.: Render timeout
  [7012] Toy bracelet with letters.
      ✗ Toy bracelet with letters.: Render timeout
  [7017] A plastic key with no
      ✗ A plastic key with no: Render timeout
  [7021] Road sign
      ✗ Road sign: Render timeout
  [7031] R2d2 robot.
      ✗ R2d2 robot.: Render timeout
  [7033] Stack of blue pillars with
      ✗ Stack of blue pillars with: Render timeout
  [7036] Telephone receiver on table.
      ✗ Telephone receiver on table.: Render timeout
  [7038] Blue 3d plastic chair.
      ✗ Blue 3d plastic chair.: Render timeout
  [7043] Blue dome with letters.
      ✗ Blue dome with letters.: Render timeout
  [7044] Image of sign on black
      ✗ Image of sign on black: Render failed: WARNING: Can't open include file '2dgraphing.scad'.
ERROR: Parser error: syntax error in file ../../../../../tmp/tmpt0hg020u/test.scad, line 26
Can't parse file '/tmp/tmpt0hg020u/test.scad'!


  [7049] Blue cups stacked on table.
      ✗ Blue cups stacked on table.: Render timeout
  [7055] Blue object on white background.
      ✗ Blue object on white background.: Render timeout
  [7059] Sculpture of a wire on
      ✗ Sculpture of a wire on: Render timeout
  [7060] Tool kit.
      ✗ Tool kit.: Render failed: WARNING: Can't open include file 'DeWaltLibrary.scad'.
ERROR: Parser error: syntax error in file ../../../../../tmp/tmp7_jw09r9/test.scad, line 129
Can't parse file '/tmp/tmp7_jw09r9/test.scad'!


  [7064] Blue lego block.
      ✗ Blue lego block.: Render timeout
  [7065] 3d print on printer.
      ✗ 3d print on printer.: Render timeout
  [7067] Red speaker on table.
      ✗ Red speaker on table.: Render timeout
  [7068] Colorful paper divider with logo
      ✗ Colorful paper divider with logo: Render timeout
  [7069] Boat designs on screen.
      ✗ Boat designs on screen.: Render failed: ERROR: Parser error: syntax error in file ../../../../../tmp/tmp5j_45m2q/test.scad, line 74
Can't parse file '/tmp/tmp5j_45m2q/test.scad'!


  [7076] Blue ladder on table.
      ✗ Blue ladder on table.: Render timeout
  [7085] Semiconductor chip with measurement markings.
      ✗ Semiconductor chip with measurement markings.: Render timeout
  [7089] Gear
      ✗ Gear: Render failed: WARNING: Can't open import file '/tmp/tmpkvuo7394/C:/Users/zahir/Documents/ShapeJS.stl', import() at line 1
Geometries in cache: 1
Geometry cache size in bytes: 152
CGAL Polyhedrons in cache: 0
CGAL c
  [7093] Computer model of printer parts.
      ✗ Computer model of printer parts.: Render timeout
  [7096] Plastic tray of magnets.
      ✗ Plastic tray of magnets.: Render failed: ERROR: Parser error: syntax error in file ../../../../../tmp/tmpsond70p3/test.scad, line 99
Can't parse file '/tmp/tmpsond70p3/test.scad'!


  [7107] Router with wires connected to
      ✗ Router with wires connected to: Render timeout
  [7109] Robot face with gears.
      ✗ Robot face with gears.: Render failed: ERROR: Parser error: syntax error in file ../../../../../tmp/tmp3ijhydjg/test.scad, line 351
Can't parse file '/tmp/tmp3ijhydjg/test.scad'!


  [7111] Yellow belt logo, black text
      ✗ Yellow belt logo, black text: Render timeout
  [7119] Vase set with gold trim.
      ✗ Vase set with gold trim.: Render timeout
  [7121] Gold ring with ridges.
      ✗ Gold ring with ridges.: Render timeout
  [7126] Cupcake container with candle.
      ✗ Cupcake container with candle.: Render failed: ERROR: Parser error: syntax error in file ../../../../../tmp/tmpy2r8gu33/test.scad, line 15
Can't parse file '/tmp/tmpy2r8gu33/test.scad'!


  [7128] Qr code block on table.
      ✗ Qr code block on table.: Render failed: ERROR: Parser error: syntax error in file ../../../../../tmp/tmp700_91fp/test.scad, line 8
Can't parse file '/tmp/tmp700_91fp/test.scad'!


  [7142] Bucket and cube on ground.
      ✗ Bucket and cube on ground.: Render timeout
  [7143] 3D model of battery pack
      ✗ 3D model of battery pack: Render failed: ERROR: Parser error: syntax error in file ../../../../../tmp/tmpboc8yust/test.scad, line 390
Can't parse file '/tmp/tmpboc8yust/test.scad'!


  [7144] Gun on stand.
      ✗ Gun on stand.: Render timeout
  [7145] Screws in a stack
      ✗ Screws in a stack: Render timeout
  [7146] Black handles on dresser drawer.
      ✗ Black handles on dresser drawer.: Render timeout
  [7152] Yellow robot hand.
      ✗ Yellow robot hand.: Render failed: ERROR: Parser error: syntax error in file ../../../../../tmp/tmp1j2z_1lr/test.scad, line 113
Can't parse file '/tmp/tmp1j2z_1lr/test.scad'!


  [7155] Spice shaker with lid off.
      ✗ Spice shaker with lid off.: Render timeout
  [7157] Toothbrush holder with toothpaste.
      ✗ Toothbrush holder with toothpaste.: Render timeout
  [7162] Blue mat on ground.
      ✗ Blue mat on ground.: Render timeout
  [7164] Toy gun on table with
      ✗ Toy gun on table with: Render timeout
  [7165] Gear cutouts on metal.
      ✗ Gear cutouts on metal.: Render timeout
  [7185] Four measuring spoons.
      ✗ Four measuring spoons.: Render timeout
  [7190] Red container, cigarettes.
      ✗ Red container, cigarettes.: Render timeout
  [7193] Three items on table.
      ✗ Three items on table.: Render timeout
  [7194] Jewelry with ring designs
      ✗ Jewelry with ring designs: Render failed: ECHO: "Ring size = 16.31"
ECHO: "Scale factor = 0.79561"
WARNING: Can't open import file '/tmp/tmprcoyhuct/blank_ring.stl', import() at line 74
WARNING: The file '/tmp/tmprcoyhuct/lion_200.png' couldn
  [7195] A mouse pad on the
      ✗ A mouse pad on the: Render failed: ERROR: Parser error: syntax error in file ../../../../../tmp/tmp06itd_2e/test.scad, line 267
Can't parse file '/tmp/tmp06itd_2e/test.scad'!


  [7196] Toy train set.
      ✗ Toy train set.: Render timeout
  [7197] Ceramic coffee mug on table
      ✗ Ceramic coffee mug on table: Render timeout
  [7198] Gold metal window screen.
      ✗ Gold metal window screen.: Render timeout
  [7209] Blue puzzle on table.
      ✗ Blue puzzle on table.: Render failed: Geometries in cache: 74
Geometry cache size in bytes: 81576
CGAL Polyhedrons in cache: 10
CGAL cache size in bytes: 1233952
Total rendering time: 0:00:01.912
   Top level object is a 2D object:
   Con
  [7218] Geodesic dome made of wood.
      ✗ Geodesic dome made of wood.: Render timeout
  [7225] Plastic shell on table.
      ✗ Plastic shell on table.: Render timeout
  [7227] Plant planter with dots.
      ✗ Plant planter with dots.: Render timeout
  [7229] Plastic bottle top.
      ✗ Plastic bottle top.: Render timeout
  [7233] Computer screen with a wheel
      ✗ Computer screen with a wheel: Render timeout
  [7240] Metal wheel with spokes.
      ✗ Metal wheel with spokes.: Render timeout
  [7242] CAD model of gears.
      ✗ CAD model of gears.: Render failed: ERROR: Parser error: syntax error in file ../../../../../tmp/tmp4d2yrvyr/test.scad, line 296
Can't parse file '/tmp/tmp4d2yrvyr/test.scad'!


  [7243] Black leafy object on white
      ✗ Black leafy object on white: Render failed: WARNING: Can't open import file '/tmp/tmplzk4603d/Lump_of_Coal_B.stl', import() at line 41
Geometries in cache: 20
Geometry cache size in bytes: 3856
CGAL Polyhedrons in cache: 6
CGAL cache size in by
  [7245] Cables.
      ✗ Cables.: Render timeout
  [7249] Blue 3D printed object.
      ✗ Blue 3D printed object.: Render timeout
  [7250] Cookie cutter with name.
      ✗ Cookie cutter with name.: Render failed: ERROR: Parser error: syntax error in file ../../../../../tmp/tmp3_jps6rr/test.scad, line 76
Can't parse file '/tmp/tmp3_jps6rr/test.scad'!


  [7255] Blue board with white dots.
      ✗ Blue board with white dots.: Render failed: ERROR: Recursion detected calling function 'ord_' in file test.scad, line 16
TRACE: called by 'ord_' in file test.scad, line 25
TRACE: called by 'get_braille_char' in file test.scad, line 27
TRACE: ca
  [7260] Water bottle with pump.
      ✗ Water bottle with pump.: Render timeout
  [7261] A ruler shaped like a
      ✗ A ruler shaped like a: Render timeout
  [7279] Picture of a hook.
      ✗ Picture of a hook.: Render timeout
  [7287] Knife with plastic sheath.
      ✗ Knife with plastic sheath.: Render timeout
  [7289] Lego toy for building blocks.
      ✗ Lego toy for building blocks.: Render timeout
  [7295] Black fan on table.
      ✗ Black fan on table.: Render failed: ERROR: Parser error: syntax error in file ../../../../../tmp/tmp6xxoflul/test.scad, line 76
Can't parse file '/tmp/tmp6xxoflul/test.scad'!


  [7296] Tube with holes along it.
      ✗ Tube with holes along it.: Render timeout
  [7301] Basket with holes.
      ✗ Basket with holes.: Render timeout
  [7302] Lego train track
      ✗ Lego train track: Render timeout
  [7308] Model of a yellow top.
      ✗ Model of a yellow top.: Render timeout
  [7313] The wire is twisted
      ✗ The wire is twisted: Render timeout
  [7314] Coffee spoon.
      ✗ Coffee spoon.: Render timeout
  [7315] Blue plastic parts.
      ✗ Blue plastic parts.: Render failed: WARNING: Can't open include file 'BOSL2/std.scad'.
ERROR: Parser error: syntax error in file ../../../../../tmp/tmp1m6v4jsb/test.scad, line 82
Can't parse file '/tmp/tmp1m6v4jsb/test.scad'!


  [7316] Water filter pitcher.
      ✗ Water filter pitcher.: Render timeout
  [7317] Qr code sign on board.
      ✗ Qr code sign on board.: Render failed: WARNING: Can't open include file 'qr.scad'.
ERROR: Parser error: syntax error in file ../../../../../tmp/tmpai54nhen/test.scad, line 18
Can't parse file '/tmp/tmpai54nhen/test.scad'!


  [7323] Broken gear and bolt on
      ✗ Broken gear and bolt on: Render timeout
  [7326] Pink double a batteries.
      ✗ Pink double a batteries.: Render timeout
  [7327] Toys in a box.
      ✗ Toys in a box.: Render failed: ERROR: Parser error: syntax error in file ../../../../../tmp/tmpea8cw2ci/test.scad, line 171
Can't parse file '/tmp/tmpea8cw2ci/test.scad'!


  [7329] Six colorful plastic flag holders.
      ✗ Six colorful plastic flag holders.: Render timeout
  [7331] Ruler made from a single
      ✗ Ruler made from a single: Render timeout
  [7341] Yellow bottle cap.
      ✗ Yellow bottle cap.: Render timeout
  [7344] 3d print, wheel.
      ✗ 3d print, wheel.: Render timeout
  [7354] Miniature house ornament with candle.
      ✗ Miniature house ornament with candle.: Render timeout
  [7356] Blue cube on table.
      ✗ Blue cube on table.: Render failed: ERROR: Parser error: syntax error in file ../../../../../tmp/tmpav9iperi/test.scad, line 81
Can't parse file '/tmp/tmpav9iperi/test.scad'!


  [7357] Metal lock.
      ✗ Metal lock.: Render failed: ERROR: Parser error: syntax error in file ../../../../../tmp/tmpcy5j_qvz/test.scad, line 329
Can't parse file '/tmp/tmpcy5j_qvz/test.scad'!


  [7360] Electronic mixing board.
      ✗ Electronic mixing board.: Render timeout
  [7362] Fake plastic dice.
      ✗ Fake plastic dice.: Render timeout
  [7367] Rings of metal on table.
      ✗ Rings of metal on table.: Render failed: WARNING: Can't open include file 'screws.scad'.
ERROR: Parser error: syntax error in file ../../../../../tmp/tmprk6ta84f/test.scad, line 112
Can't parse file '/tmp/tmprk6ta84f/test.scad'!


  [7368] Plastic square tiles on table.
      ✗ Plastic square tiles on table.: Render failed: ERROR: Parser error: syntax error in file ../../../../../tmp/tmpcht428hf/test.scad, line 101
Can't parse file '/tmp/tmpcht428hf/test.scad'!


  [7369] Computer-aided design drawing of a
      ✗ Computer-aided design drawing of a: Render failed: ERROR: Parser error: syntax error in file ../../../../../tmp/tmpqsxp5zhg/test.scad, line 365
Can't parse file '/tmp/tmpqsxp5zhg/test.scad'!


  [7371] Set of four blue plastic
      ✗ Set of four blue plastic: Render timeout
  [7372] Jars with red tops on
      ✗ Jars with red tops on: Render timeout
